
---------- Begin Simulation Statistics ----------
final_tick                               118088775000                       # Number of ticks from beginning of simulation (restored from checkpoints and never reset)
host_inst_rate                                 119129                       # Simulator instruction rate (inst/s)
host_mem_usage                                 724568                       # Number of bytes of host memory used
host_op_rate                                   120466                       # Simulator op (including micro ops) rate (op/s)
host_seconds                                   839.43                       # Real time elapsed on the host
host_tick_rate                              140677382                       # Simulator tick rate (ticks/s)
sim_freq                                 1000000000000                       # Frequency of simulated ticks
sim_insts                                   100000000                       # Number of instructions simulated
sim_ops                                     101122355                       # Number of ops (including micro ops) simulated
sim_seconds                                  0.118089                       # Number of seconds simulated
sim_ticks                                118088775000                       # Number of ticks simulated
system.cpu.committedInsts                   100000000                       # Number of instructions committed
system.cpu.committedOps                     101122355                       # Number of ops (including micro ops) committed
system.cpu.cpi                               1.180888                       # CPI: cycles per instruction
system.cpu.discardedOps                        955682                       # Number of ops (including micro ops) which were discarded before commit
system.cpu.idleCycles                         2330397                       # Total number of cycles that the object has spent stopped
system.cpu.ipc                               0.846821                       # IPC: instructions per cycle
system.cpu.numCycles                        118088775                       # number of cpu cycles simulated
system.cpu.numFetchSuspends                         0                       # Number of times Execute suspended instruction fetching
system.cpu.numWorkItemsCompleted                    0                       # number of work items this cpu completed
system.cpu.numWorkItemsStarted                      0                       # number of work items this cpu started
system.cpu.op_class_0::No_OpClass                   0      0.00%      0.00% # Class of committed instruction
system.cpu.op_class_0::IntAlu                55111255     54.50%     54.50% # Class of committed instruction
system.cpu.op_class_0::IntMult                 167845      0.17%     54.67% # Class of committed instruction
system.cpu.op_class_0::IntDiv                       0      0.00%     54.67% # Class of committed instruction
system.cpu.op_class_0::FloatAdd                     0      0.00%     54.67% # Class of committed instruction
system.cpu.op_class_0::FloatCmp                     0      0.00%     54.67% # Class of committed instruction
system.cpu.op_class_0::FloatCvt                     0      0.00%     54.67% # Class of committed instruction
system.cpu.op_class_0::FloatMult                    0      0.00%     54.67% # Class of committed instruction
system.cpu.op_class_0::FloatMultAcc                 0      0.00%     54.67% # Class of committed instruction
system.cpu.op_class_0::FloatDiv                     0      0.00%     54.67% # Class of committed instruction
system.cpu.op_class_0::FloatMisc                    0      0.00%     54.67% # Class of committed instruction
system.cpu.op_class_0::FloatSqrt                    0      0.00%     54.67% # Class of committed instruction
system.cpu.op_class_0::SimdAdd                    380      0.00%     54.67% # Class of committed instruction
system.cpu.op_class_0::SimdAddAcc                   0      0.00%     54.67% # Class of committed instruction
system.cpu.op_class_0::SimdAlu                    470      0.00%     54.67% # Class of committed instruction
system.cpu.op_class_0::SimdCmp                    382      0.00%     54.67% # Class of committed instruction
system.cpu.op_class_0::SimdCvt                      0      0.00%     54.67% # Class of committed instruction
system.cpu.op_class_0::SimdMisc                    53      0.00%     54.67% # Class of committed instruction
system.cpu.op_class_0::SimdMult                     0      0.00%     54.67% # Class of committed instruction
system.cpu.op_class_0::SimdMultAcc                  0      0.00%     54.67% # Class of committed instruction
system.cpu.op_class_0::SimdShift                    0      0.00%     54.67% # Class of committed instruction
system.cpu.op_class_0::SimdShiftAcc                 0      0.00%     54.67% # Class of committed instruction
system.cpu.op_class_0::SimdDiv                      0      0.00%     54.67% # Class of committed instruction
system.cpu.op_class_0::SimdSqrt                     0      0.00%     54.67% # Class of committed instruction
system.cpu.op_class_0::SimdFloatAdd            282752      0.28%     54.95% # Class of committed instruction
system.cpu.op_class_0::SimdFloatAlu                 0      0.00%     54.95% # Class of committed instruction
system.cpu.op_class_0::SimdFloatCmp            266991      0.26%     55.21% # Class of committed instruction
system.cpu.op_class_0::SimdFloatCvt            163440      0.16%     55.37% # Class of committed instruction
system.cpu.op_class_0::SimdFloatDiv             54308      0.05%     55.43% # Class of committed instruction
system.cpu.op_class_0::SimdFloatMisc           505318      0.50%     55.93% # Class of committed instruction
system.cpu.op_class_0::SimdFloatMult            36718      0.04%     55.96% # Class of committed instruction
system.cpu.op_class_0::SimdFloatMultAcc         10949      0.01%     55.97% # Class of committed instruction
system.cpu.op_class_0::SimdFloatSqrt                0      0.00%     55.97% # Class of committed instruction
system.cpu.op_class_0::SimdReduceAdd                0      0.00%     55.97% # Class of committed instruction
system.cpu.op_class_0::SimdReduceAlu                0      0.00%     55.97% # Class of committed instruction
system.cpu.op_class_0::SimdReduceCmp                0      0.00%     55.97% # Class of committed instruction
system.cpu.op_class_0::SimdFloatReduceAdd            0      0.00%     55.97% # Class of committed instruction
system.cpu.op_class_0::SimdFloatReduceCmp            0      0.00%     55.97% # Class of committed instruction
system.cpu.op_class_0::SimdAes                      0      0.00%     55.97% # Class of committed instruction
system.cpu.op_class_0::SimdAesMix                   0      0.00%     55.97% # Class of committed instruction
system.cpu.op_class_0::SimdSha1Hash                 0      0.00%     55.97% # Class of committed instruction
system.cpu.op_class_0::SimdSha1Hash2                0      0.00%     55.97% # Class of committed instruction
system.cpu.op_class_0::SimdSha256Hash               0      0.00%     55.97% # Class of committed instruction
system.cpu.op_class_0::SimdSha256Hash2              0      0.00%     55.97% # Class of committed instruction
system.cpu.op_class_0::SimdShaSigma2                0      0.00%     55.97% # Class of committed instruction
system.cpu.op_class_0::SimdShaSigma3                0      0.00%     55.97% # Class of committed instruction
system.cpu.op_class_0::SimdPredAlu                  0      0.00%     55.97% # Class of committed instruction
system.cpu.op_class_0::MemRead               38138347     37.72%     93.69% # Class of committed instruction
system.cpu.op_class_0::MemWrite               6383147      6.31%    100.00% # Class of committed instruction
system.cpu.op_class_0::FloatMemRead                 0      0.00%    100.00% # Class of committed instruction
system.cpu.op_class_0::FloatMemWrite                0      0.00%    100.00% # Class of committed instruction
system.cpu.op_class_0::IprAccess                    0      0.00%    100.00% # Class of committed instruction
system.cpu.op_class_0::InstPrefetch                 0      0.00%    100.00% # Class of committed instruction
system.cpu.op_class_0::total                101122355                       # Class of committed instruction
system.cpu.tickCycles                       115758378                       # Number of cycles that the object actually ticked
system.cpu.workload.numSyscalls                    33                       # Number of system calls
system.membus.snoop_filter.hit_multi_requests            0                       # Number of requests hitting in the snoop filter with multiple (>1) holders of the requested data.
system.membus.snoop_filter.hit_multi_snoops            0                       # Number of snoops hitting in the snoop filter with multiple (>1) holders of the requested data.
system.membus.snoop_filter.hit_single_requests            0                       # Number of requests hitting in the snoop filter with a single holder of the requested data.
system.membus.snoop_filter.hit_single_snoops            0                       # Number of snoops hitting in the snoop filter with a single holder of the requested data.
system.membus.snoop_filter.tot_requests          5778                       # Total number of requests made to the snoop filter.
system.membus.snoop_filter.tot_snoops               0                       # Total number of snoops made to the snoop filter.
system.tol2bus.snoop_filter.hit_multi_requests          396                       # Number of requests hitting in the snoop filter with multiple (>1) holders of the requested data.
system.tol2bus.snoop_filter.hit_multi_snoops            0                       # Number of snoops hitting in the snoop filter with multiple (>1) holders of the requested data.
system.tol2bus.snoop_filter.hit_single_requests         3923                       # Number of requests hitting in the snoop filter with a single holder of the requested data.
system.tol2bus.snoop_filter.hit_single_snoops            0                       # Number of snoops hitting in the snoop filter with a single holder of the requested data.
system.tol2bus.snoop_filter.tot_requests        12277                       # Total number of requests made to the snoop filter.
system.tol2bus.snoop_filter.tot_snoops              0                       # Total number of snoops made to the snoop filter.
system.clk_domain.clock                          1000                       # Clock period in ticks
system.cpu.branchPred.lookups                 6509616                       # Number of BP lookups
system.cpu.branchPred.condPredicted           5100002                       # Number of conditional branches predicted
system.cpu.branchPred.condIncorrect            345871                       # Number of conditional branches incorrect
system.cpu.branchPred.BTBLookups              4087361                       # Number of BTB lookups
system.cpu.branchPred.BTBHits                 4081445                       # Number of BTB hits
system.cpu.branchPred.BTBHitPct             99.855261                       # BTB Hit Percentage
system.cpu.branchPred.RASUsed                  313169                       # Number of times the RAS was used to get a target.
system.cpu.branchPred.RASIncorrect                  4                       # Number of incorrect RAS predictions.
system.cpu.branchPred.indirectLookups          674707                       # Number of indirect predictor lookups.
system.cpu.branchPred.indirectHits             102862                       # Number of indirect target hits.
system.cpu.branchPred.indirectMisses           571845                       # Number of indirect misses.
system.cpu.branchPred.indirectMispredicted        34897                       # Number of mispredicted indirect branches.
system.cpu.dcache.demand_hits::.cpu.data     43865626                       # number of demand (read+write) hits
system.cpu.dcache.demand_hits::total         43865626                       # number of demand (read+write) hits
system.cpu.dcache.overall_hits::.cpu.data     43874224                       # number of overall hits
system.cpu.dcache.overall_hits::total        43874224                       # number of overall hits
system.cpu.dcache.demand_misses::.cpu.data         7722                       # number of demand (read+write) misses
system.cpu.dcache.demand_misses::total           7722                       # number of demand (read+write) misses
system.cpu.dcache.overall_misses::.cpu.data         7820                       # number of overall misses
system.cpu.dcache.overall_misses::total          7820                       # number of overall misses
system.cpu.dcache.demand_miss_latency::.cpu.data    700398000                       # number of demand (read+write) miss cycles
system.cpu.dcache.demand_miss_latency::total    700398000                       # number of demand (read+write) miss cycles
system.cpu.dcache.overall_miss_latency::.cpu.data    700398000                       # number of overall miss cycles
system.cpu.dcache.overall_miss_latency::total    700398000                       # number of overall miss cycles
system.cpu.dcache.demand_accesses::.cpu.data     43873348                       # number of demand (read+write) accesses
system.cpu.dcache.demand_accesses::total     43873348                       # number of demand (read+write) accesses
system.cpu.dcache.overall_accesses::.cpu.data     43882044                       # number of overall (read+write) accesses
system.cpu.dcache.overall_accesses::total     43882044                       # number of overall (read+write) accesses
system.cpu.dcache.demand_miss_rate::.cpu.data     0.000176                       # miss rate for demand accesses
system.cpu.dcache.demand_miss_rate::total     0.000176                       # miss rate for demand accesses
system.cpu.dcache.overall_miss_rate::.cpu.data     0.000178                       # miss rate for overall accesses
system.cpu.dcache.overall_miss_rate::total     0.000178                       # miss rate for overall accesses
system.cpu.dcache.demand_avg_miss_latency::.cpu.data 90701.631702                       # average overall miss latency
system.cpu.dcache.demand_avg_miss_latency::total 90701.631702                       # average overall miss latency
system.cpu.dcache.overall_avg_miss_latency::.cpu.data 89564.961637                       # average overall miss latency
system.cpu.dcache.overall_avg_miss_latency::total 89564.961637                       # average overall miss latency
system.cpu.dcache.blocked_cycles::no_mshrs          185                       # number of cycles access was blocked
system.cpu.dcache.blocked_cycles::no_targets            0                       # number of cycles access was blocked
system.cpu.dcache.blocked::no_mshrs                 3                       # number of cycles access was blocked
system.cpu.dcache.blocked::no_targets               0                       # number of cycles access was blocked
system.cpu.dcache.avg_blocked_cycles::no_mshrs    61.666667                       # average number of cycles each access was blocked
system.cpu.dcache.avg_blocked_cycles::no_targets          nan                       # average number of cycles each access was blocked
system.cpu.dcache.writebacks::.writebacks          478                       # number of writebacks
system.cpu.dcache.writebacks::total               478                       # number of writebacks
system.cpu.dcache.demand_mshr_hits::.cpu.data         2913                       # number of demand (read+write) MSHR hits
system.cpu.dcache.demand_mshr_hits::total         2913                       # number of demand (read+write) MSHR hits
system.cpu.dcache.overall_mshr_hits::.cpu.data         2913                       # number of overall MSHR hits
system.cpu.dcache.overall_mshr_hits::total         2913                       # number of overall MSHR hits
system.cpu.dcache.demand_mshr_misses::.cpu.data         4809                       # number of demand (read+write) MSHR misses
system.cpu.dcache.demand_mshr_misses::total         4809                       # number of demand (read+write) MSHR misses
system.cpu.dcache.overall_mshr_misses::.cpu.data         4895                       # number of overall MSHR misses
system.cpu.dcache.overall_mshr_misses::total         4895                       # number of overall MSHR misses
system.cpu.dcache.demand_mshr_miss_latency::.cpu.data    461085000                       # number of demand (read+write) MSHR miss cycles
system.cpu.dcache.demand_mshr_miss_latency::total    461085000                       # number of demand (read+write) MSHR miss cycles
system.cpu.dcache.overall_mshr_miss_latency::.cpu.data    470271000                       # number of overall MSHR miss cycles
system.cpu.dcache.overall_mshr_miss_latency::total    470271000                       # number of overall MSHR miss cycles
system.cpu.dcache.demand_mshr_miss_rate::.cpu.data     0.000110                       # mshr miss rate for demand accesses
system.cpu.dcache.demand_mshr_miss_rate::total     0.000110                       # mshr miss rate for demand accesses
system.cpu.dcache.overall_mshr_miss_rate::.cpu.data     0.000112                       # mshr miss rate for overall accesses
system.cpu.dcache.overall_mshr_miss_rate::total     0.000112                       # mshr miss rate for overall accesses
system.cpu.dcache.demand_avg_mshr_miss_latency::.cpu.data 95879.600749                       # average overall mshr miss latency
system.cpu.dcache.demand_avg_mshr_miss_latency::total 95879.600749                       # average overall mshr miss latency
system.cpu.dcache.overall_avg_mshr_miss_latency::.cpu.data 96071.705822                       # average overall mshr miss latency
system.cpu.dcache.overall_avg_mshr_miss_latency::total 96071.705822                       # average overall mshr miss latency
system.cpu.dcache.replacements                    906                       # number of replacements
system.cpu.dcache.ReadReq_hits::.cpu.data     37547415                       # number of ReadReq hits
system.cpu.dcache.ReadReq_hits::total        37547415                       # number of ReadReq hits
system.cpu.dcache.ReadReq_misses::.cpu.data         1042                       # number of ReadReq misses
system.cpu.dcache.ReadReq_misses::total          1042                       # number of ReadReq misses
system.cpu.dcache.ReadReq_miss_latency::.cpu.data     90269000                       # number of ReadReq miss cycles
system.cpu.dcache.ReadReq_miss_latency::total     90269000                       # number of ReadReq miss cycles
system.cpu.dcache.ReadReq_accesses::.cpu.data     37548457                       # number of ReadReq accesses(hits+misses)
system.cpu.dcache.ReadReq_accesses::total     37548457                       # number of ReadReq accesses(hits+misses)
system.cpu.dcache.ReadReq_miss_rate::.cpu.data     0.000028                       # miss rate for ReadReq accesses
system.cpu.dcache.ReadReq_miss_rate::total     0.000028                       # miss rate for ReadReq accesses
system.cpu.dcache.ReadReq_avg_miss_latency::.cpu.data 86630.518234                       # average ReadReq miss latency
system.cpu.dcache.ReadReq_avg_miss_latency::total 86630.518234                       # average ReadReq miss latency
system.cpu.dcache.ReadReq_mshr_hits::.cpu.data           95                       # number of ReadReq MSHR hits
system.cpu.dcache.ReadReq_mshr_hits::total           95                       # number of ReadReq MSHR hits
system.cpu.dcache.ReadReq_mshr_misses::.cpu.data          947                       # number of ReadReq MSHR misses
system.cpu.dcache.ReadReq_mshr_misses::total          947                       # number of ReadReq MSHR misses
system.cpu.dcache.ReadReq_mshr_miss_latency::.cpu.data     82486000                       # number of ReadReq MSHR miss cycles
system.cpu.dcache.ReadReq_mshr_miss_latency::total     82486000                       # number of ReadReq MSHR miss cycles
system.cpu.dcache.ReadReq_mshr_miss_rate::.cpu.data     0.000025                       # mshr miss rate for ReadReq accesses
system.cpu.dcache.ReadReq_mshr_miss_rate::total     0.000025                       # mshr miss rate for ReadReq accesses
system.cpu.dcache.ReadReq_avg_mshr_miss_latency::.cpu.data 87102.428722                       # average ReadReq mshr miss latency
system.cpu.dcache.ReadReq_avg_mshr_miss_latency::total 87102.428722                       # average ReadReq mshr miss latency
system.cpu.dcache.WriteReq_hits::.cpu.data      6318211                       # number of WriteReq hits
system.cpu.dcache.WriteReq_hits::total        6318211                       # number of WriteReq hits
system.cpu.dcache.WriteReq_misses::.cpu.data         6680                       # number of WriteReq misses
system.cpu.dcache.WriteReq_misses::total         6680                       # number of WriteReq misses
system.cpu.dcache.WriteReq_miss_latency::.cpu.data    610129000                       # number of WriteReq miss cycles
system.cpu.dcache.WriteReq_miss_latency::total    610129000                       # number of WriteReq miss cycles
system.cpu.dcache.WriteReq_accesses::.cpu.data      6324891                       # number of WriteReq accesses(hits+misses)
system.cpu.dcache.WriteReq_accesses::total      6324891                       # number of WriteReq accesses(hits+misses)
system.cpu.dcache.WriteReq_miss_rate::.cpu.data     0.001056                       # miss rate for WriteReq accesses
system.cpu.dcache.WriteReq_miss_rate::total     0.001056                       # miss rate for WriteReq accesses
system.cpu.dcache.WriteReq_avg_miss_latency::.cpu.data 91336.676647                       # average WriteReq miss latency
system.cpu.dcache.WriteReq_avg_miss_latency::total 91336.676647                       # average WriteReq miss latency
system.cpu.dcache.WriteReq_mshr_hits::.cpu.data         2818                       # number of WriteReq MSHR hits
system.cpu.dcache.WriteReq_mshr_hits::total         2818                       # number of WriteReq MSHR hits
system.cpu.dcache.WriteReq_mshr_misses::.cpu.data         3862                       # number of WriteReq MSHR misses
system.cpu.dcache.WriteReq_mshr_misses::total         3862                       # number of WriteReq MSHR misses
system.cpu.dcache.WriteReq_mshr_miss_latency::.cpu.data    378599000                       # number of WriteReq MSHR miss cycles
system.cpu.dcache.WriteReq_mshr_miss_latency::total    378599000                       # number of WriteReq MSHR miss cycles
system.cpu.dcache.WriteReq_mshr_miss_rate::.cpu.data     0.000611                       # mshr miss rate for WriteReq accesses
system.cpu.dcache.WriteReq_mshr_miss_rate::total     0.000611                       # mshr miss rate for WriteReq accesses
system.cpu.dcache.WriteReq_avg_mshr_miss_latency::.cpu.data 98031.848783                       # average WriteReq mshr miss latency
system.cpu.dcache.WriteReq_avg_mshr_miss_latency::total 98031.848783                       # average WriteReq mshr miss latency
system.cpu.dcache.SoftPFReq_hits::.cpu.data         8598                       # number of SoftPFReq hits
system.cpu.dcache.SoftPFReq_hits::total          8598                       # number of SoftPFReq hits
system.cpu.dcache.SoftPFReq_misses::.cpu.data           98                       # number of SoftPFReq misses
system.cpu.dcache.SoftPFReq_misses::total           98                       # number of SoftPFReq misses
system.cpu.dcache.SoftPFReq_accesses::.cpu.data         8696                       # number of SoftPFReq accesses(hits+misses)
system.cpu.dcache.SoftPFReq_accesses::total         8696                       # number of SoftPFReq accesses(hits+misses)
system.cpu.dcache.SoftPFReq_miss_rate::.cpu.data     0.011270                       # miss rate for SoftPFReq accesses
system.cpu.dcache.SoftPFReq_miss_rate::total     0.011270                       # miss rate for SoftPFReq accesses
system.cpu.dcache.SoftPFReq_mshr_misses::.cpu.data           86                       # number of SoftPFReq MSHR misses
system.cpu.dcache.SoftPFReq_mshr_misses::total           86                       # number of SoftPFReq MSHR misses
system.cpu.dcache.SoftPFReq_mshr_miss_latency::.cpu.data      9186000                       # number of SoftPFReq MSHR miss cycles
system.cpu.dcache.SoftPFReq_mshr_miss_latency::total      9186000                       # number of SoftPFReq MSHR miss cycles
system.cpu.dcache.SoftPFReq_mshr_miss_rate::.cpu.data     0.009890                       # mshr miss rate for SoftPFReq accesses
system.cpu.dcache.SoftPFReq_mshr_miss_rate::total     0.009890                       # mshr miss rate for SoftPFReq accesses
system.cpu.dcache.SoftPFReq_avg_mshr_miss_latency::.cpu.data 106813.953488                       # average SoftPFReq mshr miss latency
system.cpu.dcache.SoftPFReq_avg_mshr_miss_latency::total 106813.953488                       # average SoftPFReq mshr miss latency
system.cpu.dcache.LoadLockedReq_hits::.cpu.data          165                       # number of LoadLockedReq hits
system.cpu.dcache.LoadLockedReq_hits::total          165                       # number of LoadLockedReq hits
system.cpu.dcache.LoadLockedReq_misses::.cpu.data            1                       # number of LoadLockedReq misses
system.cpu.dcache.LoadLockedReq_misses::total            1                       # number of LoadLockedReq misses
system.cpu.dcache.LoadLockedReq_miss_latency::.cpu.data        95000                       # number of LoadLockedReq miss cycles
system.cpu.dcache.LoadLockedReq_miss_latency::total        95000                       # number of LoadLockedReq miss cycles
system.cpu.dcache.LoadLockedReq_accesses::.cpu.data          166                       # number of LoadLockedReq accesses(hits+misses)
system.cpu.dcache.LoadLockedReq_accesses::total          166                       # number of LoadLockedReq accesses(hits+misses)
system.cpu.dcache.LoadLockedReq_miss_rate::.cpu.data     0.006024                       # miss rate for LoadLockedReq accesses
system.cpu.dcache.LoadLockedReq_miss_rate::total     0.006024                       # miss rate for LoadLockedReq accesses
system.cpu.dcache.LoadLockedReq_avg_miss_latency::.cpu.data        95000                       # average LoadLockedReq miss latency
system.cpu.dcache.LoadLockedReq_avg_miss_latency::total        95000                       # average LoadLockedReq miss latency
system.cpu.dcache.LoadLockedReq_mshr_misses::.cpu.data            1                       # number of LoadLockedReq MSHR misses
system.cpu.dcache.LoadLockedReq_mshr_misses::total            1                       # number of LoadLockedReq MSHR misses
system.cpu.dcache.LoadLockedReq_mshr_miss_latency::.cpu.data        93000                       # number of LoadLockedReq MSHR miss cycles
system.cpu.dcache.LoadLockedReq_mshr_miss_latency::total        93000                       # number of LoadLockedReq MSHR miss cycles
system.cpu.dcache.LoadLockedReq_mshr_miss_rate::.cpu.data     0.006024                       # mshr miss rate for LoadLockedReq accesses
system.cpu.dcache.LoadLockedReq_mshr_miss_rate::total     0.006024                       # mshr miss rate for LoadLockedReq accesses
system.cpu.dcache.LoadLockedReq_avg_mshr_miss_latency::.cpu.data        93000                       # average LoadLockedReq mshr miss latency
system.cpu.dcache.LoadLockedReq_avg_mshr_miss_latency::total        93000                       # average LoadLockedReq mshr miss latency
system.cpu.dcache.StoreCondReq_hits::.cpu.data          166                       # number of StoreCondReq hits
system.cpu.dcache.StoreCondReq_hits::total          166                       # number of StoreCondReq hits
system.cpu.dcache.StoreCondReq_accesses::.cpu.data          166                       # number of StoreCondReq accesses(hits+misses)
system.cpu.dcache.StoreCondReq_accesses::total          166                       # number of StoreCondReq accesses(hits+misses)
system.cpu.dcache.power_state.pwrStateResidencyTicks::UNDEFINED 118088775000                       # Cumulative time (in ticks) in various power states
system.cpu.dcache.tags.tagsinuse          3840.308879                       # Cycle average of tags in use
system.cpu.dcache.tags.total_refs            43879451                       # Total number of references to valid blocks.
system.cpu.dcache.tags.sampled_refs              4896                       # Sample count of references to valid blocks.
system.cpu.dcache.tags.avg_refs           8962.306168                       # Average number of references to valid blocks.
system.cpu.dcache.tags.warmup_cycle            223000                       # Cycle when the warmup percentage was hit.
system.cpu.dcache.tags.occ_blocks::.cpu.data  3840.308879                       # Average occupied blocks per requestor
system.cpu.dcache.tags.occ_percent::.cpu.data     0.937575                       # Average percentage of cache occupancy
system.cpu.dcache.tags.occ_percent::total     0.937575                       # Average percentage of cache occupancy
system.cpu.dcache.tags.occ_task_id_blocks::1024         3990                       # Occupied blocks per task id
system.cpu.dcache.tags.age_task_id_blocks_1024::2            1                       # Occupied blocks per task id
system.cpu.dcache.tags.age_task_id_blocks_1024::3           19                       # Occupied blocks per task id
system.cpu.dcache.tags.age_task_id_blocks_1024::4         3970                       # Occupied blocks per task id
system.cpu.dcache.tags.occ_task_id_percent::1024     0.974121                       # Percentage of cache occupancy per task id
system.cpu.dcache.tags.tag_accesses         175534400                       # Number of tag accesses
system.cpu.dcache.tags.data_accesses        175534400                       # Number of data accesses
system.cpu.dcache.tags.power_state.pwrStateResidencyTicks::UNDEFINED 118088775000                       # Cumulative time (in ticks) in various power states
system.cpu.dtb.instHits                             0                       # ITB inst hits
system.cpu.dtb.instMisses                           0                       # ITB inst misses
system.cpu.dtb.readHits                             0                       # DTB read hits
system.cpu.dtb.readMisses                           0                       # DTB read misses
system.cpu.dtb.writeHits                            0                       # DTB write hits
system.cpu.dtb.writeMisses                          0                       # DTB write misses
system.cpu.dtb.inserts                              0                       # Number of times an entry is inserted into the TLB
system.cpu.dtb.flushTlb                             0                       # Number of times complete TLB was flushed
system.cpu.dtb.flushTlbMva                          0                       # Number of times TLB was flushed by MVA
system.cpu.dtb.flushTlbMvaAsid                      0                       # Number of times TLB was flushed by MVA & ASID
system.cpu.dtb.flushTlbAsid                         0                       # Number of times TLB was flushed by ASID
system.cpu.dtb.flushedEntries                       0                       # Number of entries that have been flushed from TLB
system.cpu.dtb.alignFaults                          0                       # Number of TLB faults due to alignment restrictions
system.cpu.dtb.prefetchFaults                       0                       # Number of TLB faults due to prefetch
system.cpu.dtb.domainFaults                         0                       # Number of TLB faults due to domain restrictions
system.cpu.dtb.permsFaults                          0                       # Number of TLB faults due to permissions restrictions
system.cpu.dtb.readAccesses                         0                       # DTB read accesses
system.cpu.dtb.writeAccesses                        0                       # DTB write accesses
system.cpu.dtb.instAccesses                         0                       # ITB inst accesses
system.cpu.dtb.hits                                 0                       # Total TLB (inst and data) hits
system.cpu.dtb.misses                               0                       # Total TLB (inst and data) misses
system.cpu.dtb.accesses                             0                       # Total TLB (inst and data) accesses
system.cpu.dtb.stage2_mmu.stage2_tlb.instHits            0                       # ITB inst hits
system.cpu.dtb.stage2_mmu.stage2_tlb.instMisses            0                       # ITB inst misses
system.cpu.dtb.stage2_mmu.stage2_tlb.readHits            0                       # DTB read hits
system.cpu.dtb.stage2_mmu.stage2_tlb.readMisses            0                       # DTB read misses
system.cpu.dtb.stage2_mmu.stage2_tlb.writeHits            0                       # DTB write hits
system.cpu.dtb.stage2_mmu.stage2_tlb.writeMisses            0                       # DTB write misses
system.cpu.dtb.stage2_mmu.stage2_tlb.inserts            0                       # Number of times an entry is inserted into the TLB
system.cpu.dtb.stage2_mmu.stage2_tlb.flushTlb            0                       # Number of times complete TLB was flushed
system.cpu.dtb.stage2_mmu.stage2_tlb.flushTlbMva            0                       # Number of times TLB was flushed by MVA
system.cpu.dtb.stage2_mmu.stage2_tlb.flushTlbMvaAsid            0                       # Number of times TLB was flushed by MVA & ASID
system.cpu.dtb.stage2_mmu.stage2_tlb.flushTlbAsid            0                       # Number of times TLB was flushed by ASID
system.cpu.dtb.stage2_mmu.stage2_tlb.flushedEntries            0                       # Number of entries that have been flushed from TLB
system.cpu.dtb.stage2_mmu.stage2_tlb.alignFaults            0                       # Number of TLB faults due to alignment restrictions
system.cpu.dtb.stage2_mmu.stage2_tlb.prefetchFaults            0                       # Number of TLB faults due to prefetch
system.cpu.dtb.stage2_mmu.stage2_tlb.domainFaults            0                       # Number of TLB faults due to domain restrictions
system.cpu.dtb.stage2_mmu.stage2_tlb.permsFaults            0                       # Number of TLB faults due to permissions restrictions
system.cpu.dtb.stage2_mmu.stage2_tlb.readAccesses            0                       # DTB read accesses
system.cpu.dtb.stage2_mmu.stage2_tlb.writeAccesses            0                       # DTB write accesses
system.cpu.dtb.stage2_mmu.stage2_tlb.instAccesses            0                       # ITB inst accesses
system.cpu.dtb.stage2_mmu.stage2_tlb.hits            0                       # Total TLB (inst and data) hits
system.cpu.dtb.stage2_mmu.stage2_tlb.misses            0                       # Total TLB (inst and data) misses
system.cpu.dtb.stage2_mmu.stage2_tlb.accesses            0                       # Total TLB (inst and data) accesses
system.cpu.dtb.stage2_mmu.stage2_tlb.walker.walks            0                       # Table walker walks requested
system.cpu.dtb.stage2_mmu.stage2_tlb.walker.requestOrigin_Requested::Data            0                       # Table walker requests started/completed, data/inst
system.cpu.dtb.stage2_mmu.stage2_tlb.walker.requestOrigin_Requested::Inst            0                       # Table walker requests started/completed, data/inst
system.cpu.dtb.stage2_mmu.stage2_tlb.walker.requestOrigin_Requested::total            0                       # Table walker requests started/completed, data/inst
system.cpu.dtb.stage2_mmu.stage2_tlb.walker.requestOrigin_Completed::Data            0                       # Table walker requests started/completed, data/inst
system.cpu.dtb.stage2_mmu.stage2_tlb.walker.requestOrigin_Completed::Inst            0                       # Table walker requests started/completed, data/inst
system.cpu.dtb.stage2_mmu.stage2_tlb.walker.requestOrigin_Completed::total            0                       # Table walker requests started/completed, data/inst
system.cpu.dtb.stage2_mmu.stage2_tlb.walker.requestOrigin::total            0                       # Table walker requests started/completed, data/inst
system.cpu.dtb.stage2_mmu.stage2_tlb.walker.power_state.pwrStateResidencyTicks::UNDEFINED 118088775000                       # Cumulative time (in ticks) in various power states
system.cpu.dtb.walker.walks                         0                       # Table walker walks requested
system.cpu.dtb.walker.requestOrigin_Requested::Data            0                       # Table walker requests started/completed, data/inst
system.cpu.dtb.walker.requestOrigin_Requested::Inst            0                       # Table walker requests started/completed, data/inst
system.cpu.dtb.walker.requestOrigin_Requested::total            0                       # Table walker requests started/completed, data/inst
system.cpu.dtb.walker.requestOrigin_Completed::Data            0                       # Table walker requests started/completed, data/inst
system.cpu.dtb.walker.requestOrigin_Completed::Inst            0                       # Table walker requests started/completed, data/inst
system.cpu.dtb.walker.requestOrigin_Completed::total            0                       # Table walker requests started/completed, data/inst
system.cpu.dtb.walker.requestOrigin::total            0                       # Table walker requests started/completed, data/inst
system.cpu.dtb.walker.power_state.pwrStateResidencyTicks::UNDEFINED 118088775000                       # Cumulative time (in ticks) in various power states
system.cpu.fetch2.intInstructions            48895986                       # Number of integer instructions successfully decoded
system.cpu.fetch2.fpInstructions                    0                       # Number of floating point instructions successfully decoded
system.cpu.fetch2.vecInstructions                   0                       # Number of SIMD instructions successfully decoded
system.cpu.fetch2.loadInstructions           40554987                       # Number of memory load instructions successfully decoded
system.cpu.fetch2.storeInstructions           6265656                       # Number of memory store instructions successfully decoded
system.cpu.fetch2.amoInstructions                   0                       # Number of memory atomic instructions successfully decoded
system.cpu.icache.demand_hits::.cpu.inst     17135701                       # number of demand (read+write) hits
system.cpu.icache.demand_hits::total         17135701                       # number of demand (read+write) hits
system.cpu.icache.overall_hits::.cpu.inst     17135701                       # number of overall hits
system.cpu.icache.overall_hits::total        17135701                       # number of overall hits
system.cpu.icache.demand_misses::.cpu.inst         3492                       # number of demand (read+write) misses
system.cpu.icache.demand_misses::total           3492                       # number of demand (read+write) misses
system.cpu.icache.overall_misses::.cpu.inst         3492                       # number of overall misses
system.cpu.icache.overall_misses::total          3492                       # number of overall misses
system.cpu.icache.demand_miss_latency::.cpu.inst    192769000                       # number of demand (read+write) miss cycles
system.cpu.icache.demand_miss_latency::total    192769000                       # number of demand (read+write) miss cycles
system.cpu.icache.overall_miss_latency::.cpu.inst    192769000                       # number of overall miss cycles
system.cpu.icache.overall_miss_latency::total    192769000                       # number of overall miss cycles
system.cpu.icache.demand_accesses::.cpu.inst     17139193                       # number of demand (read+write) accesses
system.cpu.icache.demand_accesses::total     17139193                       # number of demand (read+write) accesses
system.cpu.icache.overall_accesses::.cpu.inst     17139193                       # number of overall (read+write) accesses
system.cpu.icache.overall_accesses::total     17139193                       # number of overall (read+write) accesses
system.cpu.icache.demand_miss_rate::.cpu.inst     0.000204                       # miss rate for demand accesses
system.cpu.icache.demand_miss_rate::total     0.000204                       # miss rate for demand accesses
system.cpu.icache.overall_miss_rate::.cpu.inst     0.000204                       # miss rate for overall accesses
system.cpu.icache.overall_miss_rate::total     0.000204                       # miss rate for overall accesses
system.cpu.icache.demand_avg_miss_latency::.cpu.inst 55203.035510                       # average overall miss latency
system.cpu.icache.demand_avg_miss_latency::total 55203.035510                       # average overall miss latency
system.cpu.icache.overall_avg_miss_latency::.cpu.inst 55203.035510                       # average overall miss latency
system.cpu.icache.overall_avg_miss_latency::total 55203.035510                       # average overall miss latency
system.cpu.icache.blocked_cycles::no_mshrs            0                       # number of cycles access was blocked
system.cpu.icache.blocked_cycles::no_targets            0                       # number of cycles access was blocked
system.cpu.icache.blocked::no_mshrs                 0                       # number of cycles access was blocked
system.cpu.icache.blocked::no_targets               0                       # number of cycles access was blocked
system.cpu.icache.avg_blocked_cycles::no_mshrs          nan                       # average number of cycles each access was blocked
system.cpu.icache.avg_blocked_cycles::no_targets          nan                       # average number of cycles each access was blocked
system.cpu.icache.writebacks::.writebacks         2983                       # number of writebacks
system.cpu.icache.writebacks::total              2983                       # number of writebacks
system.cpu.icache.demand_mshr_misses::.cpu.inst         3492                       # number of demand (read+write) MSHR misses
system.cpu.icache.demand_mshr_misses::total         3492                       # number of demand (read+write) MSHR misses
system.cpu.icache.overall_mshr_misses::.cpu.inst         3492                       # number of overall MSHR misses
system.cpu.icache.overall_mshr_misses::total         3492                       # number of overall MSHR misses
system.cpu.icache.demand_mshr_miss_latency::.cpu.inst    185785000                       # number of demand (read+write) MSHR miss cycles
system.cpu.icache.demand_mshr_miss_latency::total    185785000                       # number of demand (read+write) MSHR miss cycles
system.cpu.icache.overall_mshr_miss_latency::.cpu.inst    185785000                       # number of overall MSHR miss cycles
system.cpu.icache.overall_mshr_miss_latency::total    185785000                       # number of overall MSHR miss cycles
system.cpu.icache.demand_mshr_miss_rate::.cpu.inst     0.000204                       # mshr miss rate for demand accesses
system.cpu.icache.demand_mshr_miss_rate::total     0.000204                       # mshr miss rate for demand accesses
system.cpu.icache.overall_mshr_miss_rate::.cpu.inst     0.000204                       # mshr miss rate for overall accesses
system.cpu.icache.overall_mshr_miss_rate::total     0.000204                       # mshr miss rate for overall accesses
system.cpu.icache.demand_avg_mshr_miss_latency::.cpu.inst 53203.035510                       # average overall mshr miss latency
system.cpu.icache.demand_avg_mshr_miss_latency::total 53203.035510                       # average overall mshr miss latency
system.cpu.icache.overall_avg_mshr_miss_latency::.cpu.inst 53203.035510                       # average overall mshr miss latency
system.cpu.icache.overall_avg_mshr_miss_latency::total 53203.035510                       # average overall mshr miss latency
system.cpu.icache.replacements                   2983                       # number of replacements
system.cpu.icache.ReadReq_hits::.cpu.inst     17135701                       # number of ReadReq hits
system.cpu.icache.ReadReq_hits::total        17135701                       # number of ReadReq hits
system.cpu.icache.ReadReq_misses::.cpu.inst         3492                       # number of ReadReq misses
system.cpu.icache.ReadReq_misses::total          3492                       # number of ReadReq misses
system.cpu.icache.ReadReq_miss_latency::.cpu.inst    192769000                       # number of ReadReq miss cycles
system.cpu.icache.ReadReq_miss_latency::total    192769000                       # number of ReadReq miss cycles
system.cpu.icache.ReadReq_accesses::.cpu.inst     17139193                       # number of ReadReq accesses(hits+misses)
system.cpu.icache.ReadReq_accesses::total     17139193                       # number of ReadReq accesses(hits+misses)
system.cpu.icache.ReadReq_miss_rate::.cpu.inst     0.000204                       # miss rate for ReadReq accesses
system.cpu.icache.ReadReq_miss_rate::total     0.000204                       # miss rate for ReadReq accesses
system.cpu.icache.ReadReq_avg_miss_latency::.cpu.inst 55203.035510                       # average ReadReq miss latency
system.cpu.icache.ReadReq_avg_miss_latency::total 55203.035510                       # average ReadReq miss latency
system.cpu.icache.ReadReq_mshr_misses::.cpu.inst         3492                       # number of ReadReq MSHR misses
system.cpu.icache.ReadReq_mshr_misses::total         3492                       # number of ReadReq MSHR misses
system.cpu.icache.ReadReq_mshr_miss_latency::.cpu.inst    185785000                       # number of ReadReq MSHR miss cycles
system.cpu.icache.ReadReq_mshr_miss_latency::total    185785000                       # number of ReadReq MSHR miss cycles
system.cpu.icache.ReadReq_mshr_miss_rate::.cpu.inst     0.000204                       # mshr miss rate for ReadReq accesses
system.cpu.icache.ReadReq_mshr_miss_rate::total     0.000204                       # mshr miss rate for ReadReq accesses
system.cpu.icache.ReadReq_avg_mshr_miss_latency::.cpu.inst 53203.035510                       # average ReadReq mshr miss latency
system.cpu.icache.ReadReq_avg_mshr_miss_latency::total 53203.035510                       # average ReadReq mshr miss latency
system.cpu.icache.power_state.pwrStateResidencyTicks::UNDEFINED 118088775000                       # Cumulative time (in ticks) in various power states
system.cpu.icache.tags.tagsinuse           508.646094                       # Cycle average of tags in use
system.cpu.icache.tags.total_refs            17139193                       # Total number of references to valid blocks.
system.cpu.icache.tags.sampled_refs              3492                       # Sample count of references to valid blocks.
system.cpu.icache.tags.avg_refs           4908.130871                       # Average number of references to valid blocks.
system.cpu.icache.tags.warmup_cycle            108000                       # Cycle when the warmup percentage was hit.
system.cpu.icache.tags.occ_blocks::.cpu.inst   508.646094                       # Average occupied blocks per requestor
system.cpu.icache.tags.occ_percent::.cpu.inst     0.993449                       # Average percentage of cache occupancy
system.cpu.icache.tags.occ_percent::total     0.993449                       # Average percentage of cache occupancy
system.cpu.icache.tags.occ_task_id_blocks::1024          509                       # Occupied blocks per task id
system.cpu.icache.tags.age_task_id_blocks_1024::2            4                       # Occupied blocks per task id
system.cpu.icache.tags.age_task_id_blocks_1024::3            3                       # Occupied blocks per task id
system.cpu.icache.tags.age_task_id_blocks_1024::4          502                       # Occupied blocks per task id
system.cpu.icache.tags.occ_task_id_percent::1024     0.994141                       # Percentage of cache occupancy per task id
system.cpu.icache.tags.tag_accesses          34281878                       # Number of tag accesses
system.cpu.icache.tags.data_accesses         34281878                       # Number of data accesses
system.cpu.icache.tags.power_state.pwrStateResidencyTicks::UNDEFINED 118088775000                       # Cumulative time (in ticks) in various power states
system.cpu.itb.instHits                             0                       # ITB inst hits
system.cpu.itb.instMisses                           0                       # ITB inst misses
system.cpu.itb.readHits                             0                       # DTB read hits
system.cpu.itb.readMisses                           0                       # DTB read misses
system.cpu.itb.writeHits                            0                       # DTB write hits
system.cpu.itb.writeMisses                          0                       # DTB write misses
system.cpu.itb.inserts                              0                       # Number of times an entry is inserted into the TLB
system.cpu.itb.flushTlb                             0                       # Number of times complete TLB was flushed
system.cpu.itb.flushTlbMva                          0                       # Number of times TLB was flushed by MVA
system.cpu.itb.flushTlbMvaAsid                      0                       # Number of times TLB was flushed by MVA & ASID
system.cpu.itb.flushTlbAsid                         0                       # Number of times TLB was flushed by ASID
system.cpu.itb.flushedEntries                       0                       # Number of entries that have been flushed from TLB
system.cpu.itb.alignFaults                          0                       # Number of TLB faults due to alignment restrictions
system.cpu.itb.prefetchFaults                       0                       # Number of TLB faults due to prefetch
system.cpu.itb.domainFaults                         0                       # Number of TLB faults due to domain restrictions
system.cpu.itb.permsFaults                          0                       # Number of TLB faults due to permissions restrictions
system.cpu.itb.readAccesses                         0                       # DTB read accesses
system.cpu.itb.writeAccesses                        0                       # DTB write accesses
system.cpu.itb.instAccesses                         0                       # ITB inst accesses
system.cpu.itb.hits                                 0                       # Total TLB (inst and data) hits
system.cpu.itb.misses                               0                       # Total TLB (inst and data) misses
system.cpu.itb.accesses                             0                       # Total TLB (inst and data) accesses
system.cpu.itb.stage2_mmu.stage2_tlb.instHits            0                       # ITB inst hits
system.cpu.itb.stage2_mmu.stage2_tlb.instMisses            0                       # ITB inst misses
system.cpu.itb.stage2_mmu.stage2_tlb.readHits            0                       # DTB read hits
system.cpu.itb.stage2_mmu.stage2_tlb.readMisses            0                       # DTB read misses
system.cpu.itb.stage2_mmu.stage2_tlb.writeHits            0                       # DTB write hits
system.cpu.itb.stage2_mmu.stage2_tlb.writeMisses            0                       # DTB write misses
system.cpu.itb.stage2_mmu.stage2_tlb.inserts            0                       # Number of times an entry is inserted into the TLB
system.cpu.itb.stage2_mmu.stage2_tlb.flushTlb            0                       # Number of times complete TLB was flushed
system.cpu.itb.stage2_mmu.stage2_tlb.flushTlbMva            0                       # Number of times TLB was flushed by MVA
system.cpu.itb.stage2_mmu.stage2_tlb.flushTlbMvaAsid            0                       # Number of times TLB was flushed by MVA & ASID
system.cpu.itb.stage2_mmu.stage2_tlb.flushTlbAsid            0                       # Number of times TLB was flushed by ASID
system.cpu.itb.stage2_mmu.stage2_tlb.flushedEntries            0                       # Number of entries that have been flushed from TLB
system.cpu.itb.stage2_mmu.stage2_tlb.alignFaults            0                       # Number of TLB faults due to alignment restrictions
system.cpu.itb.stage2_mmu.stage2_tlb.prefetchFaults            0                       # Number of TLB faults due to prefetch
system.cpu.itb.stage2_mmu.stage2_tlb.domainFaults            0                       # Number of TLB faults due to domain restrictions
system.cpu.itb.stage2_mmu.stage2_tlb.permsFaults            0                       # Number of TLB faults due to permissions restrictions
system.cpu.itb.stage2_mmu.stage2_tlb.readAccesses            0                       # DTB read accesses
system.cpu.itb.stage2_mmu.stage2_tlb.writeAccesses            0                       # DTB write accesses
system.cpu.itb.stage2_mmu.stage2_tlb.instAccesses            0                       # ITB inst accesses
system.cpu.itb.stage2_mmu.stage2_tlb.hits            0                       # Total TLB (inst and data) hits
system.cpu.itb.stage2_mmu.stage2_tlb.misses            0                       # Total TLB (inst and data) misses
system.cpu.itb.stage2_mmu.stage2_tlb.accesses            0                       # Total TLB (inst and data) accesses
system.cpu.itb.stage2_mmu.stage2_tlb.walker.walks            0                       # Table walker walks requested
system.cpu.itb.stage2_mmu.stage2_tlb.walker.requestOrigin_Requested::Data            0                       # Table walker requests started/completed, data/inst
system.cpu.itb.stage2_mmu.stage2_tlb.walker.requestOrigin_Requested::Inst            0                       # Table walker requests started/completed, data/inst
system.cpu.itb.stage2_mmu.stage2_tlb.walker.requestOrigin_Requested::total            0                       # Table walker requests started/completed, data/inst
system.cpu.itb.stage2_mmu.stage2_tlb.walker.requestOrigin_Completed::Data            0                       # Table walker requests started/completed, data/inst
system.cpu.itb.stage2_mmu.stage2_tlb.walker.requestOrigin_Completed::Inst            0                       # Table walker requests started/completed, data/inst
system.cpu.itb.stage2_mmu.stage2_tlb.walker.requestOrigin_Completed::total            0                       # Table walker requests started/completed, data/inst
system.cpu.itb.stage2_mmu.stage2_tlb.walker.requestOrigin::total            0                       # Table walker requests started/completed, data/inst
system.cpu.itb.stage2_mmu.stage2_tlb.walker.power_state.pwrStateResidencyTicks::UNDEFINED 118088775000                       # Cumulative time (in ticks) in various power states
system.cpu.itb.walker.walks                         0                       # Table walker walks requested
system.cpu.itb.walker.requestOrigin_Requested::Data            0                       # Table walker requests started/completed, data/inst
system.cpu.itb.walker.requestOrigin_Requested::Inst            0                       # Table walker requests started/completed, data/inst
system.cpu.itb.walker.requestOrigin_Requested::total            0                       # Table walker requests started/completed, data/inst
system.cpu.itb.walker.requestOrigin_Completed::Data            0                       # Table walker requests started/completed, data/inst
system.cpu.itb.walker.requestOrigin_Completed::Inst            0                       # Table walker requests started/completed, data/inst
system.cpu.itb.walker.requestOrigin_Completed::total            0                       # Table walker requests started/completed, data/inst
system.cpu.itb.walker.requestOrigin::total            0                       # Table walker requests started/completed, data/inst
system.cpu.itb.walker.power_state.pwrStateResidencyTicks::UNDEFINED 118088775000                       # Cumulative time (in ticks) in various power states
system.cpu.power_state.pwrStateResidencyTicks::ON 118088775000                       # Cumulative time (in ticks) in various power states
system.cpu.thread_0.numInsts                100000000                       # Number of Instructions committed
system.cpu.thread_0.numOps                  101122355                       # Number of Ops committed
system.cpu.thread_0.numMemRefs                      0                       # Number of Memory References
system.cpu_clk_domain.clock                      1000                       # Clock period in ticks
system.cpu_voltage_domain.voltage                   1                       # Voltage in Volts
system.l2.demand_hits::.cpu.inst                 2175                       # number of demand (read+write) hits
system.l2.demand_hits::.cpu.data                  425                       # number of demand (read+write) hits
system.l2.demand_hits::total                     2600                       # number of demand (read+write) hits
system.l2.overall_hits::.cpu.inst                2175                       # number of overall hits
system.l2.overall_hits::.cpu.data                 425                       # number of overall hits
system.l2.overall_hits::total                    2600                       # number of overall hits
system.l2.demand_misses::.cpu.inst               1317                       # number of demand (read+write) misses
system.l2.demand_misses::.cpu.data               4471                       # number of demand (read+write) misses
system.l2.demand_misses::total                   5788                       # number of demand (read+write) misses
system.l2.overall_misses::.cpu.inst              1317                       # number of overall misses
system.l2.overall_misses::.cpu.data              4471                       # number of overall misses
system.l2.overall_misses::total                  5788                       # number of overall misses
system.l2.demand_miss_latency::.cpu.inst    128959000                       # number of demand (read+write) miss cycles
system.l2.demand_miss_latency::.cpu.data    446570000                       # number of demand (read+write) miss cycles
system.l2.demand_miss_latency::total        575529000                       # number of demand (read+write) miss cycles
system.l2.overall_miss_latency::.cpu.inst    128959000                       # number of overall miss cycles
system.l2.overall_miss_latency::.cpu.data    446570000                       # number of overall miss cycles
system.l2.overall_miss_latency::total       575529000                       # number of overall miss cycles
system.l2.demand_accesses::.cpu.inst             3492                       # number of demand (read+write) accesses
system.l2.demand_accesses::.cpu.data             4896                       # number of demand (read+write) accesses
system.l2.demand_accesses::total                 8388                       # number of demand (read+write) accesses
system.l2.overall_accesses::.cpu.inst            3492                       # number of overall (read+write) accesses
system.l2.overall_accesses::.cpu.data            4896                       # number of overall (read+write) accesses
system.l2.overall_accesses::total                8388                       # number of overall (read+write) accesses
system.l2.demand_miss_rate::.cpu.inst        0.377148                       # miss rate for demand accesses
system.l2.demand_miss_rate::.cpu.data        0.913194                       # miss rate for demand accesses
system.l2.demand_miss_rate::total            0.690033                       # miss rate for demand accesses
system.l2.overall_miss_rate::.cpu.inst       0.377148                       # miss rate for overall accesses
system.l2.overall_miss_rate::.cpu.data       0.913194                       # miss rate for overall accesses
system.l2.overall_miss_rate::total           0.690033                       # miss rate for overall accesses
system.l2.demand_avg_miss_latency::.cpu.inst 97918.754746                       # average overall miss latency
system.l2.demand_avg_miss_latency::.cpu.data 99881.458287                       # average overall miss latency
system.l2.demand_avg_miss_latency::total 99434.865238                       # average overall miss latency
system.l2.overall_avg_miss_latency::.cpu.inst 97918.754746                       # average overall miss latency
system.l2.overall_avg_miss_latency::.cpu.data 99881.458287                       # average overall miss latency
system.l2.overall_avg_miss_latency::total 99434.865238                       # average overall miss latency
system.l2.blocked_cycles::no_mshrs                  0                       # number of cycles access was blocked
system.l2.blocked_cycles::no_targets                0                       # number of cycles access was blocked
system.l2.blocked::no_mshrs                         0                       # number of cycles access was blocked
system.l2.blocked::no_targets                       0                       # number of cycles access was blocked
system.l2.avg_blocked_cycles::no_mshrs            nan                       # average number of cycles each access was blocked
system.l2.avg_blocked_cycles::no_targets          nan                       # average number of cycles each access was blocked
system.l2.demand_mshr_hits::.cpu.inst               2                       # number of demand (read+write) MSHR hits
system.l2.demand_mshr_hits::.cpu.data               8                       # number of demand (read+write) MSHR hits
system.l2.demand_mshr_hits::total                  10                       # number of demand (read+write) MSHR hits
system.l2.overall_mshr_hits::.cpu.inst              2                       # number of overall MSHR hits
system.l2.overall_mshr_hits::.cpu.data              8                       # number of overall MSHR hits
system.l2.overall_mshr_hits::total                 10                       # number of overall MSHR hits
system.l2.demand_mshr_misses::.cpu.inst          1315                       # number of demand (read+write) MSHR misses
system.l2.demand_mshr_misses::.cpu.data          4463                       # number of demand (read+write) MSHR misses
system.l2.demand_mshr_misses::total              5778                       # number of demand (read+write) MSHR misses
system.l2.overall_mshr_misses::.cpu.inst         1315                       # number of overall MSHR misses
system.l2.overall_mshr_misses::.cpu.data         4463                       # number of overall MSHR misses
system.l2.overall_mshr_misses::total             5778                       # number of overall MSHR misses
system.l2.demand_mshr_miss_latency::.cpu.inst    102293000                       # number of demand (read+write) MSHR miss cycles
system.l2.demand_mshr_miss_latency::.cpu.data    356698000                       # number of demand (read+write) MSHR miss cycles
system.l2.demand_mshr_miss_latency::total    458991000                       # number of demand (read+write) MSHR miss cycles
system.l2.overall_mshr_miss_latency::.cpu.inst    102293000                       # number of overall MSHR miss cycles
system.l2.overall_mshr_miss_latency::.cpu.data    356698000                       # number of overall MSHR miss cycles
system.l2.overall_mshr_miss_latency::total    458991000                       # number of overall MSHR miss cycles
system.l2.demand_mshr_miss_rate::.cpu.inst     0.376575                       # mshr miss rate for demand accesses
system.l2.demand_mshr_miss_rate::.cpu.data     0.911560                       # mshr miss rate for demand accesses
system.l2.demand_mshr_miss_rate::total       0.688841                       # mshr miss rate for demand accesses
system.l2.overall_mshr_miss_rate::.cpu.inst     0.376575                       # mshr miss rate for overall accesses
system.l2.overall_mshr_miss_rate::.cpu.data     0.911560                       # mshr miss rate for overall accesses
system.l2.overall_mshr_miss_rate::total      0.688841                       # mshr miss rate for overall accesses
system.l2.demand_avg_mshr_miss_latency::.cpu.inst 77789.353612                       # average overall mshr miss latency
system.l2.demand_avg_mshr_miss_latency::.cpu.data 79923.369931                       # average overall mshr miss latency
system.l2.demand_avg_mshr_miss_latency::total 79437.694704                       # average overall mshr miss latency
system.l2.overall_avg_mshr_miss_latency::.cpu.inst 77789.353612                       # average overall mshr miss latency
system.l2.overall_avg_mshr_miss_latency::.cpu.data 79923.369931                       # average overall mshr miss latency
system.l2.overall_avg_mshr_miss_latency::total 79437.694704                       # average overall mshr miss latency
system.l2.replacements                              0                       # number of replacements
system.l2.WritebackDirty_hits::.writebacks          478                       # number of WritebackDirty hits
system.l2.WritebackDirty_hits::total              478                       # number of WritebackDirty hits
system.l2.WritebackDirty_accesses::.writebacks          478                       # number of WritebackDirty accesses(hits+misses)
system.l2.WritebackDirty_accesses::total          478                       # number of WritebackDirty accesses(hits+misses)
system.l2.WritebackClean_hits::.writebacks         2653                       # number of WritebackClean hits
system.l2.WritebackClean_hits::total             2653                       # number of WritebackClean hits
system.l2.WritebackClean_accesses::.writebacks         2653                       # number of WritebackClean accesses(hits+misses)
system.l2.WritebackClean_accesses::total         2653                       # number of WritebackClean accesses(hits+misses)
system.l2.ReadExReq_hits::.cpu.data               193                       # number of ReadExReq hits
system.l2.ReadExReq_hits::total                   193                       # number of ReadExReq hits
system.l2.ReadExReq_misses::.cpu.data            3669                       # number of ReadExReq misses
system.l2.ReadExReq_misses::total                3669                       # number of ReadExReq misses
system.l2.ReadExReq_miss_latency::.cpu.data    362960000                       # number of ReadExReq miss cycles
system.l2.ReadExReq_miss_latency::total     362960000                       # number of ReadExReq miss cycles
system.l2.ReadExReq_accesses::.cpu.data          3862                       # number of ReadExReq accesses(hits+misses)
system.l2.ReadExReq_accesses::total              3862                       # number of ReadExReq accesses(hits+misses)
system.l2.ReadExReq_miss_rate::.cpu.data     0.950026                       # miss rate for ReadExReq accesses
system.l2.ReadExReq_miss_rate::total         0.950026                       # miss rate for ReadExReq accesses
system.l2.ReadExReq_avg_miss_latency::.cpu.data 98926.137912                       # average ReadExReq miss latency
system.l2.ReadExReq_avg_miss_latency::total 98926.137912                       # average ReadExReq miss latency
system.l2.ReadExReq_mshr_misses::.cpu.data         3669                       # number of ReadExReq MSHR misses
system.l2.ReadExReq_mshr_misses::total           3669                       # number of ReadExReq MSHR misses
system.l2.ReadExReq_mshr_miss_latency::.cpu.data    289580000                       # number of ReadExReq MSHR miss cycles
system.l2.ReadExReq_mshr_miss_latency::total    289580000                       # number of ReadExReq MSHR miss cycles
system.l2.ReadExReq_mshr_miss_rate::.cpu.data     0.950026                       # mshr miss rate for ReadExReq accesses
system.l2.ReadExReq_mshr_miss_rate::total     0.950026                       # mshr miss rate for ReadExReq accesses
system.l2.ReadExReq_avg_mshr_miss_latency::.cpu.data 78926.137912                       # average ReadExReq mshr miss latency
system.l2.ReadExReq_avg_mshr_miss_latency::total 78926.137912                       # average ReadExReq mshr miss latency
system.l2.ReadCleanReq_hits::.cpu.inst           2175                       # number of ReadCleanReq hits
system.l2.ReadCleanReq_hits::total               2175                       # number of ReadCleanReq hits
system.l2.ReadCleanReq_misses::.cpu.inst         1317                       # number of ReadCleanReq misses
system.l2.ReadCleanReq_misses::total             1317                       # number of ReadCleanReq misses
system.l2.ReadCleanReq_miss_latency::.cpu.inst    128959000                       # number of ReadCleanReq miss cycles
system.l2.ReadCleanReq_miss_latency::total    128959000                       # number of ReadCleanReq miss cycles
system.l2.ReadCleanReq_accesses::.cpu.inst         3492                       # number of ReadCleanReq accesses(hits+misses)
system.l2.ReadCleanReq_accesses::total           3492                       # number of ReadCleanReq accesses(hits+misses)
system.l2.ReadCleanReq_miss_rate::.cpu.inst     0.377148                       # miss rate for ReadCleanReq accesses
system.l2.ReadCleanReq_miss_rate::total      0.377148                       # miss rate for ReadCleanReq accesses
system.l2.ReadCleanReq_avg_miss_latency::.cpu.inst 97918.754746                       # average ReadCleanReq miss latency
system.l2.ReadCleanReq_avg_miss_latency::total 97918.754746                       # average ReadCleanReq miss latency
system.l2.ReadCleanReq_mshr_hits::.cpu.inst            2                       # number of ReadCleanReq MSHR hits
system.l2.ReadCleanReq_mshr_hits::total             2                       # number of ReadCleanReq MSHR hits
system.l2.ReadCleanReq_mshr_misses::.cpu.inst         1315                       # number of ReadCleanReq MSHR misses
system.l2.ReadCleanReq_mshr_misses::total         1315                       # number of ReadCleanReq MSHR misses
system.l2.ReadCleanReq_mshr_miss_latency::.cpu.inst    102293000                       # number of ReadCleanReq MSHR miss cycles
system.l2.ReadCleanReq_mshr_miss_latency::total    102293000                       # number of ReadCleanReq MSHR miss cycles
system.l2.ReadCleanReq_mshr_miss_rate::.cpu.inst     0.376575                       # mshr miss rate for ReadCleanReq accesses
system.l2.ReadCleanReq_mshr_miss_rate::total     0.376575                       # mshr miss rate for ReadCleanReq accesses
system.l2.ReadCleanReq_avg_mshr_miss_latency::.cpu.inst 77789.353612                       # average ReadCleanReq mshr miss latency
system.l2.ReadCleanReq_avg_mshr_miss_latency::total 77789.353612                       # average ReadCleanReq mshr miss latency
system.l2.ReadSharedReq_hits::.cpu.data           232                       # number of ReadSharedReq hits
system.l2.ReadSharedReq_hits::total               232                       # number of ReadSharedReq hits
system.l2.ReadSharedReq_misses::.cpu.data          802                       # number of ReadSharedReq misses
system.l2.ReadSharedReq_misses::total             802                       # number of ReadSharedReq misses
system.l2.ReadSharedReq_miss_latency::.cpu.data     83610000                       # number of ReadSharedReq miss cycles
system.l2.ReadSharedReq_miss_latency::total     83610000                       # number of ReadSharedReq miss cycles
system.l2.ReadSharedReq_accesses::.cpu.data         1034                       # number of ReadSharedReq accesses(hits+misses)
system.l2.ReadSharedReq_accesses::total          1034                       # number of ReadSharedReq accesses(hits+misses)
system.l2.ReadSharedReq_miss_rate::.cpu.data     0.775629                       # miss rate for ReadSharedReq accesses
system.l2.ReadSharedReq_miss_rate::total     0.775629                       # miss rate for ReadSharedReq accesses
system.l2.ReadSharedReq_avg_miss_latency::.cpu.data 104251.870324                       # average ReadSharedReq miss latency
system.l2.ReadSharedReq_avg_miss_latency::total 104251.870324                       # average ReadSharedReq miss latency
system.l2.ReadSharedReq_mshr_hits::.cpu.data            8                       # number of ReadSharedReq MSHR hits
system.l2.ReadSharedReq_mshr_hits::total            8                       # number of ReadSharedReq MSHR hits
system.l2.ReadSharedReq_mshr_misses::.cpu.data          794                       # number of ReadSharedReq MSHR misses
system.l2.ReadSharedReq_mshr_misses::total          794                       # number of ReadSharedReq MSHR misses
system.l2.ReadSharedReq_mshr_miss_latency::.cpu.data     67118000                       # number of ReadSharedReq MSHR miss cycles
system.l2.ReadSharedReq_mshr_miss_latency::total     67118000                       # number of ReadSharedReq MSHR miss cycles
system.l2.ReadSharedReq_mshr_miss_rate::.cpu.data     0.767892                       # mshr miss rate for ReadSharedReq accesses
system.l2.ReadSharedReq_mshr_miss_rate::total     0.767892                       # mshr miss rate for ReadSharedReq accesses
system.l2.ReadSharedReq_avg_mshr_miss_latency::.cpu.data 84531.486146                       # average ReadSharedReq mshr miss latency
system.l2.ReadSharedReq_avg_mshr_miss_latency::total 84531.486146                       # average ReadSharedReq mshr miss latency
system.l2.power_state.pwrStateResidencyTicks::UNDEFINED 118088775000                       # Cumulative time (in ticks) in various power states
system.l2.tags.tagsinuse                  5568.409625                       # Cycle average of tags in use
system.l2.tags.total_refs                       11871                       # Total number of references to valid blocks.
system.l2.tags.sampled_refs                      5778                       # Sample count of references to valid blocks.
system.l2.tags.avg_refs                      2.054517                       # Average number of references to valid blocks.
system.l2.tags.warmup_cycle                     87000                       # Cycle when the warmup percentage was hit.
system.l2.tags.occ_blocks::.cpu.inst      1307.647533                       # Average occupied blocks per requestor
system.l2.tags.occ_blocks::.cpu.data      4260.762092                       # Average occupied blocks per requestor
system.l2.tags.occ_percent::.cpu.inst        0.039906                       # Average percentage of cache occupancy
system.l2.tags.occ_percent::.cpu.data        0.130028                       # Average percentage of cache occupancy
system.l2.tags.occ_percent::total            0.169934                       # Average percentage of cache occupancy
system.l2.tags.occ_task_id_blocks::1024          5778                       # Occupied blocks per task id
system.l2.tags.age_task_id_blocks_1024::3            1                       # Occupied blocks per task id
system.l2.tags.age_task_id_blocks_1024::4         5777                       # Occupied blocks per task id
system.l2.tags.occ_task_id_percent::1024     0.176331                       # Percentage of cache occupancy per task id
system.l2.tags.tag_accesses                    100826                       # Number of tag accesses
system.l2.tags.data_accesses                   100826                       # Number of data accesses
system.l2.tags.power_state.pwrStateResidencyTicks::UNDEFINED 118088775000                       # Cumulative time (in ticks) in various power states
system.mem_ctrls.avgPriority_.cpu.inst::samples      1315.00                       # Average QoS priority value for accepted requests
system.mem_ctrls.avgPriority_.cpu.data::samples      4463.00                       # Average QoS priority value for accepted requests
system.mem_ctrls.priorityMinLatency      0.000000018750                       # per QoS priority minimum request to response latency (s)
system.mem_ctrls.priorityMaxLatency      0.000000577000                       # per QoS priority maximum request to response latency (s)
system.mem_ctrls.numReadWriteTurnArounds            0                       # Number of turnarounds from READ to WRITE
system.mem_ctrls.numWriteReadTurnArounds            0                       # Number of turnarounds from WRITE to READ
system.mem_ctrls.numStayReadState               41879                       # Number of times bus staying in READ state
system.mem_ctrls.numStayWriteState                  0                       # Number of times bus staying in WRITE state
system.mem_ctrls.readReqs                        5778                       # Number of read requests accepted
system.mem_ctrls.writeReqs                          0                       # Number of write requests accepted
system.mem_ctrls.readBursts                      5778                       # Number of controller read bursts, including those serviced by the write queue
system.mem_ctrls.writeBursts                        0                       # Number of controller write bursts, including those merged in the write queue
system.mem_ctrls.servicedByWrQ                      0                       # Number of controller read bursts serviced by the write queue
system.mem_ctrls.mergedWrBursts                     0                       # Number of controller write bursts merged with an existing one
system.mem_ctrls.neitherReadNorWriteReqs            0                       # Number of requests that are neither read nor write
system.mem_ctrls.avgRdQLen                       1.01                       # Average read queue length when enqueuing
system.mem_ctrls.avgWrQLen                       0.00                       # Average write queue length when enqueuing
system.mem_ctrls.numRdRetry                         0                       # Number of times read queue was full causing retry
system.mem_ctrls.numWrRetry                         0                       # Number of times write queue was full causing retry
system.mem_ctrls.readPktSize::0                     0                       # Read request sizes (log2)
system.mem_ctrls.readPktSize::1                     0                       # Read request sizes (log2)
system.mem_ctrls.readPktSize::2                     0                       # Read request sizes (log2)
system.mem_ctrls.readPktSize::3                     0                       # Read request sizes (log2)
system.mem_ctrls.readPktSize::4                     0                       # Read request sizes (log2)
system.mem_ctrls.readPktSize::5                     0                       # Read request sizes (log2)
system.mem_ctrls.readPktSize::6                  5778                       # Read request sizes (log2)
system.mem_ctrls.writePktSize::0                    0                       # Write request sizes (log2)
system.mem_ctrls.writePktSize::1                    0                       # Write request sizes (log2)
system.mem_ctrls.writePktSize::2                    0                       # Write request sizes (log2)
system.mem_ctrls.writePktSize::3                    0                       # Write request sizes (log2)
system.mem_ctrls.writePktSize::4                    0                       # Write request sizes (log2)
[...]
system.mem_ctrls.dram.bw_read::.cpu.data      2418790                       # Total read bandwidth from this memory (bytes/s)
system.mem_ctrls.dram.bw_read::total          3131475                       # Total read bandwidth from this memory (bytes/s)
system.mem_ctrls.dram.bw_inst_read::.cpu.inst       712684                       # Instruction read bandwidth from this memory (bytes/s)
system.mem_ctrls.dram.bw_inst_read::total       712684                       # Instruction read bandwidth from this memory (bytes/s)
system.mem_ctrls.dram.bw_total::.cpu.inst       712684                       # Total bandwidth to/from this memory (bytes/s)
system.mem_ctrls.dram.bw_total::.cpu.data      2418790                       # Total bandwidth to/from this memory (bytes/s)
system.mem_ctrls.dram.bw_total::total         3131475                       # Total bandwidth to/from this memory (bytes/s)
system.mem_ctrls.dram.readBursts                 5778                       # Number of DRAM read bursts
system.mem_ctrls.dram.writeBursts                   0                       # Number of DRAM write bursts
system.mem_ctrls.dram.perBankRdBursts::0          298                       # Per bank write bursts
system.mem_ctrls.dram.perBankRdBursts::1          338                       # Per bank write bursts
system.mem_ctrls.dram.perBankRdBursts::2          342                       # Per bank write bursts
system.mem_ctrls.dram.perBankRdBursts::3          325                       # Per bank write bursts
system.mem_ctrls.dram.perBankRdBursts::4          322                       # Per bank write bursts
system.mem_ctrls.dram.perBankRdBursts::5          534                       # Per bank write bursts
system.mem_ctrls.dram.perBankRdBursts::6          351                       # Per bank write bursts
system.mem_ctrls.dram.perBankRdBursts::7          447                       # Per bank write bursts
system.mem_ctrls.dram.perBankRdBursts::8          281                       # Per bank write bursts
system.mem_ctrls.dram.perBankRdBursts::9          404                       # Per bank write bursts
system.mem_ctrls.dram.perBankRdBursts::10          395                       # Per bank write bursts
system.mem_ctrls.dram.perBankRdBursts::11          385                       # Per bank write bursts
system.mem_ctrls.dram.perBankRdBursts::12          417                       # Per bank write bursts
system.mem_ctrls.dram.perBankRdBursts::13          349                       # Per bank write bursts
system.mem_ctrls.dram.perBankRdBursts::14          308                       # Per bank write bursts
system.mem_ctrls.dram.perBankRdBursts::15          282                       # Per bank write bursts
system.mem_ctrls.dram.perBankWrBursts::0            0                       # Per bank write bursts
system.mem_ctrls.dram.perBankWrBursts::1            0                       # Per bank write bursts
system.mem_ctrls.dram.perBankWrBursts::2            0                       # Per bank write bursts
system.mem_ctrls.dram.perBankWrBursts::3            0                       # Per bank write bursts
system.mem_ctrls.dram.perBankWrBursts::4            0                       # Per bank write bursts
system.mem_ctrls.dram.perBankWrBursts::5            0                       # Per bank write bursts
system.mem_ctrls.dram.perBankWrBursts::6            0                       # Per bank write bursts
system.mem_ctrls.dram.perBankWrBursts::7            0                       # Per bank write bursts
system.mem_ctrls.dram.perBankWrBursts::8            0                       # Per bank write bursts
system.mem_ctrls.dram.perBankWrBursts::9            0                       # Per bank write bursts
system.mem_ctrls.dram.perBankWrBursts::10            0                       # Per bank write bursts
system.mem_ctrls.dram.perBankWrBursts::11            0                       # Per bank write bursts
system.mem_ctrls.dram.perBankWrBursts::12            0                       # Per bank write bursts
system.mem_ctrls.dram.perBankWrBursts::13            0                       # Per bank write bursts
system.mem_ctrls.dram.perBankWrBursts::14            0                       # Per bank write bursts
system.mem_ctrls.dram.perBankWrBursts::15            0                       # Per bank write bursts
system.mem_ctrls.dram.totQLat                54053000                       # Total ticks spent queuing
system.mem_ctrls.dram.totBusLat              28890000                       # Total ticks spent in databus transfers
system.mem_ctrls.dram.totMemAccLat          162390500                       # Total ticks spent from burst creation until serviced by the DRAM
system.mem_ctrls.dram.avgQLat                 9354.97                       # Average queueing delay per DRAM burst
system.mem_ctrls.dram.avgBusLat               5000.00                       # Average bus latency per DRAM burst
system.mem_ctrls.dram.avgMemAccLat           28104.97                       # Average memory access latency per DRAM burst
system.mem_ctrls.dram.readRowHits                4097                       # Number of row buffer hits during reads
system.mem_ctrls.dram.writeRowHits                  0                       # Number of row buffer hits during writes
system.mem_ctrls.dram.readRowHitRate            70.91                       # Row buffer hit rate for reads
system.mem_ctrls.dram.writeRowHitRate             nan                       # Row buffer hit rate for writes
system.mem_ctrls.dram.bytesPerActivate::samples         1681                       # Bytes accessed per row activation
system.mem_ctrls.dram.bytesPerActivate::mean   219.983343                       # Bytes accessed per row activation
system.mem_ctrls.dram.bytesPerActivate::gmean   142.052041                       # Bytes accessed per row activation
system.mem_ctrls.dram.bytesPerActivate::stdev   261.817839                       # Bytes accessed per row activation
system.mem_ctrls.dram.bytesPerActivate::0-127          635     37.78%     37.78% # Bytes accessed per row activation
system.mem_ctrls.dram.bytesPerActivate::128-255          634     37.72%     75.49% # Bytes accessed per row activation
system.mem_ctrls.dram.bytesPerActivate::256-383          173     10.29%     85.78% # Bytes accessed per row activation
system.mem_ctrls.dram.bytesPerActivate::384-511           41      2.44%     88.22% # Bytes accessed per row activation
system.mem_ctrls.dram.bytesPerActivate::512-639           37      2.20%     90.42% # Bytes accessed per row activation
system.mem_ctrls.dram.bytesPerActivate::640-767           13      0.77%     91.20% # Bytes accessed per row activation
system.mem_ctrls.dram.bytesPerActivate::768-895           18      1.07%     92.27% # Bytes accessed per row activation
system.mem_ctrls.dram.bytesPerActivate::896-1023           25      1.49%     93.75% # Bytes accessed per row activation
system.mem_ctrls.dram.bytesPerActivate::1024-1151          105      6.25%    100.00% # Bytes accessed per row activation
system.mem_ctrls.dram.bytesPerActivate::total         1681                       # Bytes accessed per row activation
system.mem_ctrls.dram.bytesRead                369792                       # Total number of bytes read from DRAM
system.mem_ctrls.dram.bytesWritten                  0                       # Total number of bytes written to DRAM
system.mem_ctrls.dram.avgRdBW                3.131475                       # Average DRAM read bandwidth in MiBytes/s
system.mem_ctrls.dram.avgWrBW                       0                       # Average DRAM write bandwidth in MiBytes/s
system.mem_ctrls.dram.peakBW                 12800.00                       # Theoretical peak bandwidth in MiByte/s
system.mem_ctrls.dram.busUtil                    0.02                       # Data bus utilization in percentage
system.mem_ctrls.dram.busUtilRead                0.02                       # Data bus utilization in percentage for reads
system.mem_ctrls.dram.busUtilWrite               0.00                       # Data bus utilization in percentage for writes
system.mem_ctrls.dram.pageHitRate               70.91                       # Row buffer hit rate, read and write combined
system.mem_ctrls.dram.power_state.pwrStateResidencyTicks::UNDEFINED 118088775000                       # Cumulative time (in ticks) in various power states
system.mem_ctrls.dram.rank0.actEnergy         6047580                       # Energy for activate commands per rank (pJ)
system.mem_ctrls.dram.rank0.preEnergy         3214365                       # Energy for precharge commands per rank (pJ)
system.mem_ctrls.dram.rank0.readEnergy       21112980                       # Energy for read commands per rank (pJ)
system.mem_ctrls.dram.rank0.writeEnergy             0                       # Energy for write commands per rank (pJ)
system.mem_ctrls.dram.rank0.refreshEnergy 9321630240.000002                       # Energy for refresh commands per rank (pJ)
system.mem_ctrls.dram.rank0.actBackEnergy   2785678920                       # Energy for active background per rank (pJ)
system.mem_ctrls.dram.rank0.preBackEnergy  43000254720                       # Energy for precharge background per rank (pJ)
system.mem_ctrls.dram.rank0.actPowerDownEnergy            0                       # Energy for active power-down per rank (pJ)
system.mem_ctrls.dram.rank0.prePowerDownEnergy            0                       # Energy for precharge power-down per rank (pJ)
system.mem_ctrls.dram.rank0.selfRefreshEnergy            0                       # Energy for self refresh per rank (pJ)
system.mem_ctrls.dram.rank0.totalEnergy   55137938805                       # Total energy per rank (pJ)
system.mem_ctrls.dram.rank0.averagePower   466.919390                       # Core power per rank (mW)
system.mem_ctrls.dram.rank0.totalIdleTime            0                       # Total Idle time Per DRAM Rank
system.mem_ctrls.dram.rank0.pwrStateTime::IDLE 111764663500                       # Time in different power states
system.mem_ctrls.dram.rank0.pwrStateTime::REF   3943160000                       # Time in different power states
system.mem_ctrls.dram.rank0.pwrStateTime::SREF            0                       # Time in different power states
system.mem_ctrls.dram.rank0.pwrStateTime::PRE_PDN            0                       # Time in different power states
system.mem_ctrls.dram.rank0.pwrStateTime::ACT   2380951500                       # Time in different power states
system.mem_ctrls.dram.rank0.pwrStateTime::ACT_PDN            0                       # Time in different power states
system.mem_ctrls.dram.rank1.actEnergy         5954760                       # Energy for activate commands per rank (pJ)
system.mem_ctrls.dram.rank1.preEnergy         3165030                       # Energy for precharge commands per rank (pJ)
system.mem_ctrls.dram.rank1.readEnergy       20141940                       # Energy for read commands per rank (pJ)
system.mem_ctrls.dram.rank1.writeEnergy             0                       # Energy for write commands per rank (pJ)
system.mem_ctrls.dram.rank1.refreshEnergy 9321630240.000002                       # Energy for refresh commands per rank (pJ)
system.mem_ctrls.dram.rank1.actBackEnergy   2835722640                       # Energy for active background per rank (pJ)
system.mem_ctrls.dram.rank1.preBackEnergy  42958112640                       # Energy for precharge background per rank (pJ)
system.mem_ctrls.dram.rank1.actPowerDownEnergy            0                       # Energy for active power-down per rank (pJ)
system.mem_ctrls.dram.rank1.prePowerDownEnergy            0                       # Energy for precharge power-down per rank (pJ)
system.mem_ctrls.dram.rank1.selfRefreshEnergy            0                       # Energy for self refresh per rank (pJ)
system.mem_ctrls.dram.rank1.totalEnergy   55144727250                       # Total energy per rank (pJ)
system.mem_ctrls.dram.rank1.averagePower   466.976876                       # Core power per rank (mW)
system.mem_ctrls.dram.rank1.totalIdleTime            0                       # Total Idle time Per DRAM Rank
system.mem_ctrls.dram.rank1.pwrStateTime::IDLE 111654525250                       # Time in different power states
system.mem_ctrls.dram.rank1.pwrStateTime::REF   3943160000                       # Time in different power states
system.mem_ctrls.dram.rank1.pwrStateTime::SREF            0                       # Time in different power states
system.mem_ctrls.dram.rank1.pwrStateTime::PRE_PDN            0                       # Time in different power states
system.mem_ctrls.dram.rank1.pwrStateTime::ACT   2491089750                       # Time in different power states
system.mem_ctrls.dram.rank1.pwrStateTime::ACT_PDN            0                       # Time in different power states
system.mem_ctrls.power_state.pwrStateResidencyTicks::UNDEFINED 118088775000                       # Cumulative time (in ticks) in various power states
system.membus.trans_dist::ReadResp               2109                       # Transaction distribution
system.membus.trans_dist::ReadExReq              3669                       # Transaction distribution
system.membus.trans_dist::ReadExResp             3669                       # Transaction distribution
system.membus.trans_dist::ReadSharedReq          2109                       # Transaction distribution
system.membus.pkt_count_system.l2.mem_side_port::system.mem_ctrls.port        11556                       # Packet count per connected requestor and responder (bytes)
system.membus.pkt_count::total                  11556                       # Packet count per connected requestor and responder (bytes)
system.membus.pkt_size_system.l2.mem_side_port::system.mem_ctrls.port       369792                       # Cumulative packet size per connected requestor and responder (bytes)
system.membus.pkt_size::total                  369792                       # Cumulative packet size per connected requestor and responder (bytes)
system.membus.snoops                                0                       # Total snoops (count)
system.membus.snoopTraffic                          0                       # Total snoop traffic (bytes)
system.membus.snoop_fanout::samples              5778                       # Request fanout histogram
system.membus.snoop_fanout::mean                    0                       # Request fanout histogram
system.membus.snoop_fanout::stdev                   0                       # Request fanout histogram
system.membus.snoop_fanout::underflows              0      0.00%      0.00% # Request fanout histogram
system.membus.snoop_fanout::0                    5778    100.00%    100.00% # Request fanout histogram
system.membus.snoop_fanout::1                       0      0.00%    100.00% # Request fanout histogram
system.membus.snoop_fanout::overflows               0      0.00%    100.00% # Request fanout histogram
system.membus.snoop_fanout::min_value               0                       # Request fanout histogram
system.membus.snoop_fanout::max_value               0                       # Request fanout histogram
system.membus.snoop_fanout::total                5778                       # Request fanout histogram
system.membus.power_state.pwrStateResidencyTicks::UNDEFINED 118088775000                       # Cumulative time (in ticks) in various power states
system.membus.reqLayer0.occupancy             5778000                       # Layer occupancy (ticks)
system.membus.reqLayer0.utilization               0.0                       # Layer utilization (%)
system.membus.respLayer1.occupancy           30744750                       # Layer occupancy (ticks)
system.membus.respLayer1.utilization              0.0                       # Layer utilization (%)
system.tol2bus.trans_dist::ReadResp              4526                       # Transaction distribution
system.tol2bus.trans_dist::WritebackDirty          478                       # Transaction distribution
system.tol2bus.trans_dist::WritebackClean         2983                       # Transaction distribution
system.tol2bus.trans_dist::CleanEvict             428                       # Transaction distribution
system.tol2bus.trans_dist::ReadExReq             3862                       # Transaction distribution
system.tol2bus.trans_dist::ReadExResp            3862                       # Transaction distribution
system.tol2bus.trans_dist::ReadCleanReq          3492                       # Transaction distribution
system.tol2bus.trans_dist::ReadSharedReq         1034                       # Transaction distribution
system.tol2bus.pkt_count_system.cpu.icache.mem_side_port::system.l2.cpu_side_port         9967                       # Packet count per connected requestor and responder (bytes)
system.tol2bus.pkt_count_system.cpu.dcache.mem_side_port::system.l2.cpu_side_port        10698                       # Packet count per connected requestor and responder (bytes)
system.tol2bus.pkt_count::total                 20665                       # Packet count per connected requestor and responder (bytes)
system.tol2bus.pkt_size_system.cpu.icache.mem_side_port::system.l2.cpu_side_port       414400                       # Cumulative packet size per connected requestor and responder (bytes)
system.tol2bus.pkt_size_system.cpu.dcache.mem_side_port::system.l2.cpu_side_port       343936                       # Cumulative packet size per connected requestor and responder (bytes)
system.tol2bus.pkt_size::total                 758336                       # Cumulative packet size per connected requestor and responder (bytes)
system.tol2bus.snoops                               0                       # Total snoops (count)
system.tol2bus.snoopTraffic                         0                       # Total snoop traffic (bytes)
system.tol2bus.snoop_fanout::samples             8388                       # Request fanout histogram
system.tol2bus.snoop_fanout::mean            0.051264                       # Request fanout histogram
system.tol2bus.snoop_fanout::stdev           0.220548                       # Request fanout histogram
system.tol2bus.snoop_fanout::underflows             0      0.00%      0.00% # Request fanout histogram
system.tol2bus.snoop_fanout::0                   7958     94.87%     94.87% # Request fanout histogram
system.tol2bus.snoop_fanout::1                    430      5.13%    100.00% # Request fanout histogram
system.tol2bus.snoop_fanout::2                      0      0.00%    100.00% # Request fanout histogram
system.tol2bus.snoop_fanout::overflows              0      0.00%    100.00% # Request fanout histogram
system.tol2bus.snoop_fanout::min_value              0                       # Request fanout histogram
system.tol2bus.snoop_fanout::max_value              1                       # Request fanout histogram
system.tol2bus.snoop_fanout::total               8388                       # Request fanout histogram
system.tol2bus.power_state.pwrStateResidencyTicks::UNDEFINED 118088775000                       # Cumulative time (in ticks) in various power states
system.tol2bus.reqLayer0.occupancy           19199000                       # Layer occupancy (ticks)
system.tol2bus.reqLayer0.utilization              0.0                       # Layer utilization (%)
system.tol2bus.respLayer0.occupancy          10477998                       # Layer occupancy (ticks)
system.tol2bus.respLayer0.utilization             0.0                       # Layer utilization (%)
system.tol2bus.respLayer1.occupancy          14695992                       # Layer occupancy (ticks)
system.tol2bus.respLayer1.utilization             0.0                       # Layer utilization (%)
system.voltage_domain.voltage                       1                       # Voltage in Volts

---------- End Simulation Statistics   ----------
