
---------- Begin Simulation Statistics ----------
final_tick                               109232196000                       # Number of ticks from beginning of simulation (restored from checkpoints and never reset)
host_inst_rate                                 168610                       # Simulator instruction rate (inst/s)
host_mem_usage                                 722116                       # Number of bytes of host memory used
host_op_rate                                   184020                       # Simulator op (including micro ops) rate (op/s)
host_seconds                                   593.08                       # Real time elapsed on the host
host_tick_rate                              184176858                       # Simulator tick rate (ticks/s)
sim_freq                                 1000000000000                       # Frequency of simulated ticks
sim_insts                                   100000001                       # Number of instructions simulated
sim_ops                                     109139393                       # Number of ops (including micro ops) simulated
sim_seconds                                  0.109232                       # Number of seconds simulated
sim_ticks                                109232196000                       # Number of ticks simulated
system.cpu.committedInsts                   100000001                       # Number of instructions committed
system.cpu.committedOps                     109139393                       # Number of ops (including micro ops) committed
system.cpu.cpi                               1.092322                       # CPI: cycles per instruction
system.cpu.discardedOps                        431148                       # Number of ops (including micro ops) which were discarded before commit
system.cpu.idleCycles                         2505525                       # Total number of cycles that the object has spent stopped
system.cpu.ipc                               0.915481                       # IPC: instructions per cycle
system.cpu.numCycles                        109232196                       # number of cpu cycles simulated
system.cpu.numFetchSuspends                         0                       # Number of times Execute suspended instruction fetching
system.cpu.numWorkItemsCompleted                    0                       # number of work items this cpu completed
system.cpu.numWorkItemsStarted                      0                       # number of work items this cpu started
system.cpu.op_class_0::No_OpClass                   0      0.00%      0.00% # Class of committed instruction
system.cpu.op_class_0::IntAlu                72222733     66.17%     66.17% # Class of committed instruction
system.cpu.op_class_0::IntMult                 547028      0.50%     66.68% # Class of committed instruction
system.cpu.op_class_0::IntDiv                       0      0.00%     66.68% # Class of committed instruction
system.cpu.op_class_0::FloatAdd                     0      0.00%     66.68% # Class of committed instruction
system.cpu.op_class_0::FloatCmp                     0      0.00%     66.68% # Class of committed instruction
system.cpu.op_class_0::FloatCvt                     0      0.00%     66.68% # Class of committed instruction
system.cpu.op_class_0::FloatMult                    0      0.00%     66.68% # Class of committed instruction
system.cpu.op_class_0::FloatMultAcc                 0      0.00%     66.68% # Class of committed instruction
system.cpu.op_class_0::FloatDiv                     0      0.00%     66.68% # Class of committed instruction
system.cpu.op_class_0::FloatMisc                    0      0.00%     66.68% # Class of committed instruction
system.cpu.op_class_0::FloatSqrt                    0      0.00%     66.68% # Class of committed instruction
system.cpu.op_class_0::SimdAdd                 231656      0.21%     66.89% # Class of committed instruction
system.cpu.op_class_0::SimdAddAcc                   0      0.00%     66.89% # Class of committed instruction
system.cpu.op_class_0::SimdAlu                 148482      0.14%     67.02% # Class of committed instruction
system.cpu.op_class_0::SimdCmp                 115828      0.11%     67.13% # Class of committed instruction
system.cpu.op_class_0::SimdCvt                      0      0.00%     67.13% # Class of committed instruction
system.cpu.op_class_0::SimdMisc                 42808      0.04%     67.17% # Class of committed instruction
system.cpu.op_class_0::SimdMult                     0      0.00%     67.17% # Class of committed instruction
system.cpu.op_class_0::SimdMultAcc                  0      0.00%     67.17% # Class of committed instruction
system.cpu.op_class_0::SimdShift                    0      0.00%     67.17% # Class of committed instruction
system.cpu.op_class_0::SimdShiftAcc                 0      0.00%     67.17% # Class of committed instruction
system.cpu.op_class_0::SimdDiv                      0      0.00%     67.17% # Class of committed instruction
system.cpu.op_class_0::SimdSqrt                     0      0.00%     67.17% # Class of committed instruction
system.cpu.op_class_0::SimdFloatAdd                 0      0.00%     67.17% # Class of committed instruction
system.cpu.op_class_0::SimdFloatAlu                 0      0.00%     67.17% # Class of committed instruction
system.cpu.op_class_0::SimdFloatCmp                 0      0.00%     67.17% # Class of committed instruction
system.cpu.op_class_0::SimdFloatCvt                 0      0.00%     67.17% # Class of committed instruction
system.cpu.op_class_0::SimdFloatDiv                 0      0.00%     67.17% # Class of committed instruction
system.cpu.op_class_0::SimdFloatMisc           159857      0.15%     67.32% # Class of committed instruction
system.cpu.op_class_0::SimdFloatMult                0      0.00%     67.32% # Class of committed instruction
system.cpu.op_class_0::SimdFloatMultAcc             0      0.00%     67.32% # Class of committed instruction
system.cpu.op_class_0::SimdFloatSqrt                0      0.00%     67.32% # Class of committed instruction
system.cpu.op_class_0::SimdReduceAdd                0      0.00%     67.32% # Class of committed instruction
system.cpu.op_class_0::SimdReduceAlu                0      0.00%     67.32% # Class of committed instruction
system.cpu.op_class_0::SimdReduceCmp                0      0.00%     67.32% # Class of committed instruction
system.cpu.op_class_0::SimdFloatReduceAdd            0      0.00%     67.32% # Class of committed instruction
system.cpu.op_class_0::SimdFloatReduceCmp            0      0.00%     67.32% # Class of committed instruction
system.cpu.op_class_0::SimdAes                      0      0.00%     67.32% # Class of committed instruction
system.cpu.op_class_0::SimdAesMix                   0      0.00%     67.32% # Class of committed instruction
system.cpu.op_class_0::SimdSha1Hash                 0      0.00%     67.32% # Class of committed instruction
system.cpu.op_class_0::SimdSha1Hash2                0      0.00%     67.32% # Class of committed instruction
system.cpu.op_class_0::SimdSha256Hash               0      0.00%     67.32% # Class of committed instruction
system.cpu.op_class_0::SimdSha256Hash2              0      0.00%     67.32% # Class of committed instruction
system.cpu.op_class_0::SimdShaSigma2                0      0.00%     67.32% # Class of committed instruction
system.cpu.op_class_0::SimdShaSigma3                0      0.00%     67.32% # Class of committed instruction
system.cpu.op_class_0::SimdPredAlu                  0      0.00%     67.32% # Class of committed instruction
system.cpu.op_class_0::MemRead               20932683     19.18%     86.50% # Class of committed instruction
system.cpu.op_class_0::MemWrite              14738318     13.50%    100.00% # Class of committed instruction
system.cpu.op_class_0::FloatMemRead                 0      0.00%    100.00% # Class of committed instruction
system.cpu.op_class_0::FloatMemWrite                0      0.00%    100.00% # Class of committed instruction
system.cpu.op_class_0::IprAccess                    0      0.00%    100.00% # Class of committed instruction
system.cpu.op_class_0::InstPrefetch                 0      0.00%    100.00% # Class of committed instruction
system.cpu.op_class_0::total                109139393                       # Class of committed instruction
system.cpu.tickCycles                       106726671                       # Number of cycles that the object actually ticked
system.cpu.workload.numSyscalls                    85                       # Number of system calls
system.membus.snoop_filter.hit_multi_requests            0                       # Number of requests hitting in the snoop filter with multiple (>1) holders of the requested data.
system.membus.snoop_filter.hit_multi_snoops            0                       # Number of snoops hitting in the snoop filter with multiple (>1) holders of the requested data.
system.membus.snoop_filter.hit_single_requests         5672                       # Number of requests hitting in the snoop filter with a single holder of the requested data.
system.membus.snoop_filter.hit_single_snoops            0                       # Number of snoops hitting in the snoop filter with a single holder of the requested data.
system.membus.snoop_filter.tot_requests         44510                       # Total number of requests made to the snoop filter.
system.membus.snoop_filter.tot_snoops               0                       # Total number of snoops made to the snoop filter.
system.tol2bus.snoop_filter.hit_multi_requests           17                       # Number of requests hitting in the snoop filter with multiple (>1) holders of the requested data.
system.tol2bus.snoop_filter.hit_multi_snoops            0                       # Number of snoops hitting in the snoop filter with multiple (>1) holders of the requested data.
system.tol2bus.snoop_filter.hit_single_requests        51914                       # Number of requests hitting in the snoop filter with a single holder of the requested data.
system.tol2bus.snoop_filter.hit_single_snoops          410                       # Number of snoops hitting in the snoop filter with a single holder of the requested data.
system.tol2bus.snoop_filter.tot_requests       105238                       # Total number of requests made to the snoop filter.
system.tol2bus.snoop_filter.tot_snoops            410                       # Total number of snoops made to the snoop filter.
system.clk_domain.clock                          1000                       # Clock period in ticks
system.cpu.branchPred.lookups                19659293                       # Number of BP lookups
system.cpu.branchPred.condPredicted          15818910                       # Number of conditional branches predicted
system.cpu.branchPred.condIncorrect             88865                       # Number of conditional branches incorrect
system.cpu.branchPred.BTBLookups              8076164                       # Number of BTB lookups
system.cpu.branchPred.BTBHits                 8062911                       # Number of BTB hits
system.cpu.branchPred.BTBHitPct             99.835900                       # BTB Hit Percentage
system.cpu.branchPred.RASUsed                 1050623                       # Number of times the RAS was used to get a target.
system.cpu.branchPred.RASIncorrect                468                       # Number of incorrect RAS predictions.
system.cpu.branchPred.indirectLookups          422617                       # Number of indirect predictor lookups.
system.cpu.branchPred.indirectHits             287881                       # Number of indirect target hits.
system.cpu.branchPred.indirectMisses           134736                       # Number of indirect misses.
system.cpu.branchPred.indirectMispredicted          993                       # Number of mispredicted indirect branches.
system.cpu.dcache.demand_hits::.cpu.data     35098782                       # number of demand (read+write) hits
system.cpu.dcache.demand_hits::total         35098782                       # number of demand (read+write) hits
system.cpu.dcache.overall_hits::.cpu.data     35101867                       # number of overall hits
system.cpu.dcache.overall_hits::total        35101867                       # number of overall hits
system.cpu.dcache.demand_misses::.cpu.data        71647                       # number of demand (read+write) misses
system.cpu.dcache.demand_misses::total          71647                       # number of demand (read+write) misses
system.cpu.dcache.overall_misses::.cpu.data        71691                       # number of overall misses
system.cpu.dcache.overall_misses::total         71691                       # number of overall misses
system.cpu.dcache.demand_miss_latency::.cpu.data   6013332000                       # number of demand (read+write) miss cycles
system.cpu.dcache.demand_miss_latency::total   6013332000                       # number of demand (read+write) miss cycles
system.cpu.dcache.overall_miss_latency::.cpu.data   6013332000                       # number of overall miss cycles
system.cpu.dcache.overall_miss_latency::total   6013332000                       # number of overall miss cycles
system.cpu.dcache.demand_accesses::.cpu.data     35170429                       # number of demand (read+write) accesses
system.cpu.dcache.demand_accesses::total     35170429                       # number of demand (read+write) accesses
system.cpu.dcache.overall_accesses::.cpu.data     35173558                       # number of overall (read+write) accesses
system.cpu.dcache.overall_accesses::total     35173558                       # number of overall (read+write) accesses
system.cpu.dcache.demand_miss_rate::.cpu.data     0.002037                       # miss rate for demand accesses
system.cpu.dcache.demand_miss_rate::total     0.002037                       # miss rate for demand accesses
system.cpu.dcache.overall_miss_rate::.cpu.data     0.002038                       # miss rate for overall accesses
system.cpu.dcache.overall_miss_rate::total     0.002038                       # miss rate for overall accesses
system.cpu.dcache.demand_avg_miss_latency::.cpu.data 83929.990090                       # average overall miss latency
system.cpu.dcache.demand_avg_miss_latency::total 83929.990090                       # average overall miss latency
system.cpu.dcache.overall_avg_miss_latency::.cpu.data 83878.478470                       # average overall miss latency
system.cpu.dcache.overall_avg_miss_latency::total 83878.478470                       # average overall miss latency
system.cpu.dcache.blocked_cycles::no_mshrs            0                       # number of cycles access was blocked
system.cpu.dcache.blocked_cycles::no_targets            0                       # number of cycles access was blocked
system.cpu.dcache.blocked::no_mshrs                 0                       # number of cycles access was blocked
system.cpu.dcache.blocked::no_targets               0                       # number of cycles access was blocked
system.cpu.dcache.avg_blocked_cycles::no_mshrs          nan                       # average number of cycles each access was blocked
system.cpu.dcache.avg_blocked_cycles::no_targets          nan                       # average number of cycles each access was blocked
system.cpu.dcache.writebacks::.writebacks        48477                       # number of writebacks
system.cpu.dcache.writebacks::total             48477                       # number of writebacks
system.cpu.dcache.demand_mshr_hits::.cpu.data        19355                       # number of demand (read+write) MSHR hits
system.cpu.dcache.demand_mshr_hits::total        19355                       # number of demand (read+write) MSHR hits
system.cpu.dcache.overall_mshr_hits::.cpu.data        19355                       # number of overall MSHR hits
system.cpu.dcache.overall_mshr_hits::total        19355                       # number of overall MSHR hits
system.cpu.dcache.demand_mshr_misses::.cpu.data        52292                       # number of demand (read+write) MSHR misses
system.cpu.dcache.demand_mshr_misses::total        52292                       # number of demand (read+write) MSHR misses
system.cpu.dcache.overall_mshr_misses::.cpu.data        52329                       # number of overall MSHR misses
system.cpu.dcache.overall_mshr_misses::total        52329                       # number of overall MSHR misses
system.cpu.dcache.demand_mshr_miss_latency::.cpu.data   4645510000                       # number of demand (read+write) MSHR miss cycles
system.cpu.dcache.demand_mshr_miss_latency::total   4645510000                       # number of demand (read+write) MSHR miss cycles
system.cpu.dcache.overall_mshr_miss_latency::.cpu.data   4647629000                       # number of overall MSHR miss cycles
system.cpu.dcache.overall_mshr_miss_latency::total   4647629000                       # number of overall MSHR miss cycles
system.cpu.dcache.demand_mshr_miss_rate::.cpu.data     0.001487                       # mshr miss rate for demand accesses
system.cpu.dcache.demand_mshr_miss_rate::total     0.001487                       # mshr miss rate for demand accesses
system.cpu.dcache.overall_mshr_miss_rate::.cpu.data     0.001488                       # mshr miss rate for overall accesses
system.cpu.dcache.overall_mshr_miss_rate::total     0.001488                       # mshr miss rate for overall accesses
system.cpu.dcache.demand_avg_mshr_miss_latency::.cpu.data 88837.871950                       # average overall mshr miss latency
system.cpu.dcache.demand_avg_mshr_miss_latency::total 88837.871950                       # average overall mshr miss latency
system.cpu.dcache.overall_avg_mshr_miss_latency::.cpu.data 88815.551606                       # average overall mshr miss latency
system.cpu.dcache.overall_avg_mshr_miss_latency::total 88815.551606                       # average overall mshr miss latency
system.cpu.dcache.replacements                  51305                       # number of replacements
system.cpu.dcache.ReadReq_hits::.cpu.data     20886356                       # number of ReadReq hits
system.cpu.dcache.ReadReq_hits::total        20886356                       # number of ReadReq hits
system.cpu.dcache.ReadReq_misses::.cpu.data        17152                       # number of ReadReq misses
system.cpu.dcache.ReadReq_misses::total         17152                       # number of ReadReq misses
system.cpu.dcache.ReadReq_miss_latency::.cpu.data    493585000                       # number of ReadReq miss cycles
system.cpu.dcache.ReadReq_miss_latency::total    493585000                       # number of ReadReq miss cycles
system.cpu.dcache.ReadReq_accesses::.cpu.data     20903508                       # number of ReadReq accesses(hits+misses)
system.cpu.dcache.ReadReq_accesses::total     20903508                       # number of ReadReq accesses(hits+misses)
system.cpu.dcache.ReadReq_miss_rate::.cpu.data     0.000821                       # miss rate for ReadReq accesses
system.cpu.dcache.ReadReq_miss_rate::total     0.000821                       # miss rate for ReadReq accesses
system.cpu.dcache.ReadReq_avg_miss_latency::.cpu.data 28777.110541                       # average ReadReq miss latency
system.cpu.dcache.ReadReq_avg_miss_latency::total 28777.110541                       # average ReadReq miss latency
system.cpu.dcache.ReadReq_mshr_hits::.cpu.data         2823                       # number of ReadReq MSHR hits
system.cpu.dcache.ReadReq_mshr_hits::total         2823                       # number of ReadReq MSHR hits
system.cpu.dcache.ReadReq_mshr_misses::.cpu.data        14329                       # number of ReadReq MSHR misses
system.cpu.dcache.ReadReq_mshr_misses::total        14329                       # number of ReadReq MSHR misses
system.cpu.dcache.ReadReq_mshr_miss_latency::.cpu.data    377101000                       # number of ReadReq MSHR miss cycles
system.cpu.dcache.ReadReq_mshr_miss_latency::total    377101000                       # number of ReadReq MSHR miss cycles
system.cpu.dcache.ReadReq_mshr_miss_rate::.cpu.data     0.000685                       # mshr miss rate for ReadReq accesses
system.cpu.dcache.ReadReq_mshr_miss_rate::total     0.000685                       # mshr miss rate for ReadReq accesses
system.cpu.dcache.ReadReq_avg_mshr_miss_latency::.cpu.data 26317.328495                       # average ReadReq mshr miss latency
system.cpu.dcache.ReadReq_avg_mshr_miss_latency::total 26317.328495                       # average ReadReq mshr miss latency
system.cpu.dcache.WriteReq_hits::.cpu.data     14212426                       # number of WriteReq hits
system.cpu.dcache.WriteReq_hits::total       14212426                       # number of WriteReq hits
system.cpu.dcache.WriteReq_misses::.cpu.data        54495                       # number of WriteReq misses
system.cpu.dcache.WriteReq_misses::total        54495                       # number of WriteReq misses
system.cpu.dcache.WriteReq_miss_latency::.cpu.data   5519747000                       # number of WriteReq miss cycles
system.cpu.dcache.WriteReq_miss_latency::total   5519747000                       # number of WriteReq miss cycles
system.cpu.dcache.WriteReq_accesses::.cpu.data     14266921                       # number of WriteReq accesses(hits+misses)
system.cpu.dcache.WriteReq_accesses::total     14266921                       # number of WriteReq accesses(hits+misses)
system.cpu.dcache.WriteReq_miss_rate::.cpu.data     0.003820                       # miss rate for WriteReq accesses
system.cpu.dcache.WriteReq_miss_rate::total     0.003820                       # miss rate for WriteReq accesses
system.cpu.dcache.WriteReq_avg_miss_latency::.cpu.data 101289.054042                       # average WriteReq miss latency
system.cpu.dcache.WriteReq_avg_miss_latency::total 101289.054042                       # average WriteReq miss latency
system.cpu.dcache.WriteReq_mshr_hits::.cpu.data        16532                       # number of WriteReq MSHR hits
system.cpu.dcache.WriteReq_mshr_hits::total        16532                       # number of WriteReq MSHR hits
system.cpu.dcache.WriteReq_mshr_misses::.cpu.data        37963                       # number of WriteReq MSHR misses
system.cpu.dcache.WriteReq_mshr_misses::total        37963                       # number of WriteReq MSHR misses
system.cpu.dcache.WriteReq_mshr_miss_latency::.cpu.data   4268409000                       # number of WriteReq MSHR miss cycles
system.cpu.dcache.WriteReq_mshr_miss_latency::total   4268409000                       # number of WriteReq MSHR miss cycles
system.cpu.dcache.WriteReq_mshr_miss_rate::.cpu.data     0.002661                       # mshr miss rate for WriteReq accesses
system.cpu.dcache.WriteReq_mshr_miss_rate::total     0.002661                       # mshr miss rate for WriteReq accesses
system.cpu.dcache.WriteReq_avg_mshr_miss_latency::.cpu.data 112436.029819                       # average WriteReq mshr miss latency
system.cpu.dcache.WriteReq_avg_mshr_miss_latency::total 112436.029819                       # average WriteReq mshr miss latency
system.cpu.dcache.SoftPFReq_hits::.cpu.data         3085                       # number of SoftPFReq hits
system.cpu.dcache.SoftPFReq_hits::total          3085                       # number of SoftPFReq hits
system.cpu.dcache.SoftPFReq_misses::.cpu.data           44                       # number of SoftPFReq misses
system.cpu.dcache.SoftPFReq_misses::total           44                       # number of SoftPFReq misses
system.cpu.dcache.SoftPFReq_accesses::.cpu.data         3129                       # number of SoftPFReq accesses(hits+misses)
system.cpu.dcache.SoftPFReq_accesses::total         3129                       # number of SoftPFReq accesses(hits+misses)
system.cpu.dcache.SoftPFReq_miss_rate::.cpu.data     0.014062                       # miss rate for SoftPFReq accesses
system.cpu.dcache.SoftPFReq_miss_rate::total     0.014062                       # miss rate for SoftPFReq accesses
system.cpu.dcache.SoftPFReq_mshr_misses::.cpu.data           37                       # number of SoftPFReq MSHR misses
system.cpu.dcache.SoftPFReq_mshr_misses::total           37                       # number of SoftPFReq MSHR misses
system.cpu.dcache.SoftPFReq_mshr_miss_latency::.cpu.data      2119000                       # number of SoftPFReq MSHR miss cycles
system.cpu.dcache.SoftPFReq_mshr_miss_latency::total      2119000                       # number of SoftPFReq MSHR miss cycles
system.cpu.dcache.SoftPFReq_mshr_miss_rate::.cpu.data     0.011825                       # mshr miss rate for SoftPFReq accesses
system.cpu.dcache.SoftPFReq_mshr_miss_rate::total     0.011825                       # mshr miss rate for SoftPFReq accesses
system.cpu.dcache.SoftPFReq_avg_mshr_miss_latency::.cpu.data 57270.270270                       # average SoftPFReq mshr miss latency
system.cpu.dcache.SoftPFReq_avg_mshr_miss_latency::total 57270.270270                       # average SoftPFReq mshr miss latency
system.cpu.dcache.LoadLockedReq_hits::.cpu.data        85610                       # number of LoadLockedReq hits
system.cpu.dcache.LoadLockedReq_hits::total        85610                       # number of LoadLockedReq hits
system.cpu.dcache.LoadLockedReq_accesses::.cpu.data        85610                       # number of LoadLockedReq accesses(hits+misses)
system.cpu.dcache.LoadLockedReq_accesses::total        85610                       # number of LoadLockedReq accesses(hits+misses)
system.cpu.dcache.StoreCondReq_hits::.cpu.data        85610                       # number of StoreCondReq hits
system.cpu.dcache.StoreCondReq_hits::total        85610                       # number of StoreCondReq hits
system.cpu.dcache.StoreCondReq_accesses::.cpu.data        85610                       # number of StoreCondReq accesses(hits+misses)
system.cpu.dcache.StoreCondReq_accesses::total        85610                       # number of StoreCondReq accesses(hits+misses)
system.cpu.dcache.power_state.pwrStateResidencyTicks::UNDEFINED 109232196000                       # Cumulative time (in ticks) in various power states
system.cpu.dcache.tags.tagsinuse          1020.694240                       # Cycle average of tags in use
system.cpu.dcache.tags.total_refs            35325416                       # Total number of references to valid blocks.
system.cpu.dcache.tags.sampled_refs             52329                       # Sample count of references to valid blocks.
system.cpu.dcache.tags.avg_refs            675.063846                       # Average number of references to valid blocks.
system.cpu.dcache.tags.warmup_cycle            223000                       # Cycle when the warmup percentage was hit.
system.cpu.dcache.tags.occ_blocks::.cpu.data  1020.694240                       # Average occupied blocks per requestor
system.cpu.dcache.tags.occ_percent::.cpu.data     0.996772                       # Average percentage of cache occupancy
system.cpu.dcache.tags.occ_percent::total     0.996772                       # Average percentage of cache occupancy
system.cpu.dcache.tags.occ_task_id_blocks::1024         1024                       # Occupied blocks per task id
system.cpu.dcache.tags.age_task_id_blocks_1024::0            3                       # Occupied blocks per task id
system.cpu.dcache.tags.age_task_id_blocks_1024::1           25                       # Occupied blocks per task id
system.cpu.dcache.tags.age_task_id_blocks_1024::2          236                       # Occupied blocks per task id
system.cpu.dcache.tags.age_task_id_blocks_1024::3          705                       # Occupied blocks per task id
system.cpu.dcache.tags.age_task_id_blocks_1024::4           55                       # Occupied blocks per task id
system.cpu.dcache.tags.occ_task_id_percent::1024            1                       # Percentage of cache occupancy per task id
system.cpu.dcache.tags.tag_accesses          70741885                       # Number of tag accesses
system.cpu.dcache.tags.data_accesses         70741885                       # Number of data accesses
system.cpu.dcache.tags.power_state.pwrStateResidencyTicks::UNDEFINED 109232196000                       # Cumulative time (in ticks) in various power states
system.cpu.dtb.instHits                             0                       # ITB inst hits
system.cpu.dtb.instMisses                           0                       # ITB inst misses
system.cpu.dtb.readHits                             0                       # DTB read hits
system.cpu.dtb.readMisses                           0                       # DTB read misses
system.cpu.dtb.writeHits                            0                       # DTB write hits
system.cpu.dtb.writeMisses                          0                       # DTB write misses
system.cpu.dtb.inserts                              0                       # Number of times an entry is inserted into the TLB
system.cpu.dtb.flushTlb                             0                       # Number of times complete TLB was flushed
system.cpu.dtb.flushTlbMva                          0                       # Number of times TLB was flushed by MVA
system.cpu.dtb.flushTlbMvaAsid                      0                       # Number of times TLB was flushed by MVA & ASID
system.cpu.dtb.flushTlbAsid                         0                       # Number of times TLB was flushed by ASID
system.cpu.dtb.flushedEntries                       0                       # Number of entries that have been flushed from TLB
system.cpu.dtb.alignFaults                          0                       # Number of TLB faults due to alignment restrictions
system.cpu.dtb.prefetchFaults                       0                       # Number of TLB faults due to prefetch
system.cpu.dtb.domainFaults                         0                       # Number of TLB faults due to domain restrictions
system.cpu.dtb.permsFaults                          0                       # Number of TLB faults due to permissions restrictions
system.cpu.dtb.readAccesses                         0                       # DTB read accesses
system.cpu.dtb.writeAccesses                        0                       # DTB write accesses
system.cpu.dtb.instAccesses                         0                       # ITB inst accesses
system.cpu.dtb.hits                                 0                       # Total TLB (inst and data) hits
system.cpu.dtb.misses                               0                       # Total TLB (inst and data) misses
system.cpu.dtb.accesses                             0                       # Total TLB (inst and data) accesses
system.cpu.dtb.stage2_mmu.stage2_tlb.instHits            0                       # ITB inst hits
system.cpu.dtb.stage2_mmu.stage2_tlb.instMisses            0                       # ITB inst misses
system.cpu.dtb.stage2_mmu.stage2_tlb.readHits            0                       # DTB read hits
system.cpu.dtb.stage2_mmu.stage2_tlb.readMisses            0                       # DTB read misses
system.cpu.dtb.stage2_mmu.stage2_tlb.writeHits            0                       # DTB write hits
system.cpu.dtb.stage2_mmu.stage2_tlb.writeMisses            0                       # DTB write misses
system.cpu.dtb.stage2_mmu.stage2_tlb.inserts            0                       # Number of times an entry is inserted into the TLB
system.cpu.dtb.stage2_mmu.stage2_tlb.flushTlb            0                       # Number of times complete TLB was flushed
system.cpu.dtb.stage2_mmu.stage2_tlb.flushTlbMva            0                       # Number of times TLB was flushed by MVA
system.cpu.dtb.stage2_mmu.stage2_tlb.flushTlbMvaAsid            0                       # Number of times TLB was flushed by MVA & ASID
system.cpu.dtb.stage2_mmu.stage2_tlb.flushTlbAsid            0                       # Number of times TLB was flushed by ASID
system.cpu.dtb.stage2_mmu.stage2_tlb.flushedEntries            0                       # Number of entries that have been flushed from TLB
system.cpu.dtb.stage2_mmu.stage2_tlb.alignFaults            0                       # Number of TLB faults due to alignment restrictions
system.cpu.dtb.stage2_mmu.stage2_tlb.prefetchFaults            0                       # Number of TLB faults due to prefetch
system.cpu.dtb.stage2_mmu.stage2_tlb.domainFaults            0                       # Number of TLB faults due to domain restrictions
system.cpu.dtb.stage2_mmu.stage2_tlb.permsFaults            0                       # Number of TLB faults due to permissions restrictions
system.cpu.dtb.stage2_mmu.stage2_tlb.readAccesses            0                       # DTB read accesses
system.cpu.dtb.stage2_mmu.stage2_tlb.writeAccesses            0                       # DTB write accesses
system.cpu.dtb.stage2_mmu.stage2_tlb.instAccesses            0                       # ITB inst accesses
system.cpu.dtb.stage2_mmu.stage2_tlb.hits            0                       # Total TLB (inst and data) hits
system.cpu.dtb.stage2_mmu.stage2_tlb.misses            0                       # Total TLB (inst and data) misses
system.cpu.dtb.stage2_mmu.stage2_tlb.accesses            0                       # Total TLB (inst and data) accesses
system.cpu.dtb.stage2_mmu.stage2_tlb.walker.walks            0                       # Table walker walks requested
system.cpu.dtb.stage2_mmu.stage2_tlb.walker.requestOrigin_Requested::Data            0                       # Table walker requests started/completed, data/inst
system.cpu.dtb.stage2_mmu.stage2_tlb.walker.requestOrigin_Requested::Inst            0                       # Table walker requests started/completed, data/inst
system.cpu.dtb.stage2_mmu.stage2_tlb.walker.requestOrigin_Requested::total            0                       # Table walker requests started/completed, data/inst
system.cpu.dtb.stage2_mmu.stage2_tlb.walker.requestOrigin_Completed::Data            0                       # Table walker requests started/completed, data/inst
system.cpu.dtb.stage2_mmu.stage2_tlb.walker.requestOrigin_Completed::Inst            0                       # Table walker requests started/completed, data/inst
system.cpu.dtb.stage2_mmu.stage2_tlb.walker.requestOrigin_Completed::total            0                       # Table walker requests started/completed, data/inst
system.cpu.dtb.stage2_mmu.stage2_tlb.walker.requestOrigin::total            0                       # Table walker requests started/completed, data/inst
system.cpu.dtb.stage2_mmu.stage2_tlb.walker.power_state.pwrStateResidencyTicks::UNDEFINED 109232196000                       # Cumulative time (in ticks) in various power states
system.cpu.dtb.walker.walks                         0                       # Table walker walks requested
system.cpu.dtb.walker.requestOrigin_Requested::Data            0                       # Table walker requests started/completed, data/inst
system.cpu.dtb.walker.requestOrigin_Requested::Inst            0                       # Table walker requests started/completed, data/inst
system.cpu.dtb.walker.requestOrigin_Requested::total            0                       # Table walker requests started/completed, data/inst
system.cpu.dtb.walker.requestOrigin_Completed::Data            0                       # Table walker requests started/completed, data/inst
system.cpu.dtb.walker.requestOrigin_Completed::Inst            0                       # Table walker requests started/completed, data/inst
system.cpu.dtb.walker.requestOrigin_Completed::total            0                       # Table walker requests started/completed, data/inst
system.cpu.dtb.walker.requestOrigin::total            0                       # Table walker requests started/completed, data/inst
system.cpu.dtb.walker.power_state.pwrStateResidencyTicks::UNDEFINED 109232196000                       # Cumulative time (in ticks) in various power states
system.cpu.fetch2.intInstructions            49125010                       # Number of integer instructions successfully decoded
system.cpu.fetch2.fpInstructions                    0                       # Number of floating point instructions successfully decoded
system.cpu.fetch2.vecInstructions                   0                       # Number of SIMD instructions successfully decoded
system.cpu.fetch2.loadInstructions           17532192                       # Number of memory load instructions successfully decoded
system.cpu.fetch2.storeInstructions          10086724                       # Number of memory store instructions successfully decoded
system.cpu.fetch2.amoInstructions                   0                       # Number of memory atomic instructions successfully decoded
system.cpu.icache.demand_hits::.cpu.inst     27002148                       # number of demand (read+write) hits
system.cpu.icache.demand_hits::total         27002148                       # number of demand (read+write) hits
system.cpu.icache.overall_hits::.cpu.inst     27002148                       # number of overall hits
system.cpu.icache.overall_hits::total        27002148                       # number of overall hits
system.cpu.icache.demand_misses::.cpu.inst          997                       # number of demand (read+write) misses
system.cpu.icache.demand_misses::total            997                       # number of demand (read+write) misses
system.cpu.icache.overall_misses::.cpu.inst          997                       # number of overall misses
system.cpu.icache.overall_misses::total           997                       # number of overall misses
system.cpu.icache.demand_miss_latency::.cpu.inst     64034000                       # number of demand (read+write) miss cycles
system.cpu.icache.demand_miss_latency::total     64034000                       # number of demand (read+write) miss cycles
system.cpu.icache.overall_miss_latency::.cpu.inst     64034000                       # number of overall miss cycles
system.cpu.icache.overall_miss_latency::total     64034000                       # number of overall miss cycles
system.cpu.icache.demand_accesses::.cpu.inst     27003145                       # number of demand (read+write) accesses
system.cpu.icache.demand_accesses::total     27003145                       # number of demand (read+write) accesses
system.cpu.icache.overall_accesses::.cpu.inst     27003145                       # number of overall (read+write) accesses
system.cpu.icache.overall_accesses::total     27003145                       # number of overall (read+write) accesses
system.cpu.icache.demand_miss_rate::.cpu.inst     0.000037                       # miss rate for demand accesses
system.cpu.icache.demand_miss_rate::total     0.000037                       # miss rate for demand accesses
system.cpu.icache.overall_miss_rate::.cpu.inst     0.000037                       # miss rate for overall accesses
system.cpu.icache.overall_miss_rate::total     0.000037                       # miss rate for overall accesses
system.cpu.icache.demand_avg_miss_latency::.cpu.inst 64226.680040                       # average overall miss latency
system.cpu.icache.demand_avg_miss_latency::total 64226.680040                       # average overall miss latency
system.cpu.icache.overall_avg_miss_latency::.cpu.inst 64226.680040                       # average overall miss latency
system.cpu.icache.overall_avg_miss_latency::total 64226.680040                       # average overall miss latency
system.cpu.icache.blocked_cycles::no_mshrs            0                       # number of cycles access was blocked
system.cpu.icache.blocked_cycles::no_targets            0                       # number of cycles access was blocked
system.cpu.icache.blocked::no_mshrs                 0                       # number of cycles access was blocked
system.cpu.icache.blocked::no_targets               0                       # number of cycles access was blocked
system.cpu.icache.avg_blocked_cycles::no_mshrs          nan                       # average number of cycles each access was blocked
system.cpu.icache.avg_blocked_cycles::no_targets          nan                       # average number of cycles each access was blocked
system.cpu.icache.writebacks::.writebacks          607                       # number of writebacks
system.cpu.icache.writebacks::total               607                       # number of writebacks
system.cpu.icache.demand_mshr_misses::.cpu.inst          997                       # number of demand (read+write) MSHR misses
system.cpu.icache.demand_mshr_misses::total          997                       # number of demand (read+write) MSHR misses
system.cpu.icache.overall_mshr_misses::.cpu.inst          997                       # number of overall MSHR misses
system.cpu.icache.overall_mshr_misses::total          997                       # number of overall MSHR misses
system.cpu.icache.demand_mshr_miss_latency::.cpu.inst     62040000                       # number of demand (read+write) MSHR miss cycles
system.cpu.icache.demand_mshr_miss_latency::total     62040000                       # number of demand (read+write) MSHR miss cycles
system.cpu.icache.overall_mshr_miss_latency::.cpu.inst     62040000                       # number of overall MSHR miss cycles
system.cpu.icache.overall_mshr_miss_latency::total     62040000                       # number of overall MSHR miss cycles
system.cpu.icache.demand_mshr_miss_rate::.cpu.inst     0.000037                       # mshr miss rate for demand accesses
system.cpu.icache.demand_mshr_miss_rate::total     0.000037                       # mshr miss rate for demand accesses
system.cpu.icache.overall_mshr_miss_rate::.cpu.inst     0.000037                       # mshr miss rate for overall accesses
system.cpu.icache.overall_mshr_miss_rate::total     0.000037                       # mshr miss rate for overall accesses
system.cpu.icache.demand_avg_mshr_miss_latency::.cpu.inst 62226.680040                       # average overall mshr miss latency
system.cpu.icache.demand_avg_mshr_miss_latency::total 62226.680040                       # average overall mshr miss latency
system.cpu.icache.overall_avg_mshr_miss_latency::.cpu.inst 62226.680040                       # average overall mshr miss latency
system.cpu.icache.overall_avg_mshr_miss_latency::total 62226.680040                       # average overall mshr miss latency
system.cpu.icache.replacements                    607                       # number of replacements
system.cpu.icache.ReadReq_hits::.cpu.inst     27002148                       # number of ReadReq hits
system.cpu.icache.ReadReq_hits::total        27002148                       # number of ReadReq hits
system.cpu.icache.ReadReq_misses::.cpu.inst          997                       # number of ReadReq misses
system.cpu.icache.ReadReq_misses::total           997                       # number of ReadReq misses
system.cpu.icache.ReadReq_miss_latency::.cpu.inst     64034000                       # number of ReadReq miss cycles
system.cpu.icache.ReadReq_miss_latency::total     64034000                       # number of ReadReq miss cycles
system.cpu.icache.ReadReq_accesses::.cpu.inst     27003145                       # number of ReadReq accesses(hits+misses)
system.cpu.icache.ReadReq_accesses::total     27003145                       # number of ReadReq accesses(hits+misses)
system.cpu.icache.ReadReq_miss_rate::.cpu.inst     0.000037                       # miss rate for ReadReq accesses
system.cpu.icache.ReadReq_miss_rate::total     0.000037                       # miss rate for ReadReq accesses
system.cpu.icache.ReadReq_avg_miss_latency::.cpu.inst 64226.680040                       # average ReadReq miss latency
system.cpu.icache.ReadReq_avg_miss_latency::total 64226.680040                       # average ReadReq miss latency
system.cpu.icache.ReadReq_mshr_misses::.cpu.inst          997                       # number of ReadReq MSHR misses
system.cpu.icache.ReadReq_mshr_misses::total          997                       # number of ReadReq MSHR misses
system.cpu.icache.ReadReq_mshr_miss_latency::.cpu.inst     62040000                       # number of ReadReq MSHR miss cycles
system.cpu.icache.ReadReq_mshr_miss_latency::total     62040000                       # number of ReadReq MSHR miss cycles
system.cpu.icache.ReadReq_mshr_miss_rate::.cpu.inst     0.000037                       # mshr miss rate for ReadReq accesses
system.cpu.icache.ReadReq_mshr_miss_rate::total     0.000037                       # mshr miss rate for ReadReq accesses
system.cpu.icache.ReadReq_avg_mshr_miss_latency::.cpu.inst 62226.680040                       # average ReadReq mshr miss latency
system.cpu.icache.ReadReq_avg_mshr_miss_latency::total 62226.680040                       # average ReadReq mshr miss latency
system.cpu.icache.power_state.pwrStateResidencyTicks::UNDEFINED 109232196000                       # Cumulative time (in ticks) in various power states
system.cpu.icache.tags.tagsinuse           389.617863                       # Cycle average of tags in use
system.cpu.icache.tags.total_refs            27003145                       # Total number of references to valid blocks.
system.cpu.icache.tags.sampled_refs               997                       # Sample count of references to valid blocks.
system.cpu.icache.tags.avg_refs          27084.398195                       # Average number of references to valid blocks.
system.cpu.icache.tags.warmup_cycle            108000                       # Cycle when the warmup percentage was hit.
system.cpu.icache.tags.occ_blocks::.cpu.inst   389.617863                       # Average occupied blocks per requestor
system.cpu.icache.tags.occ_percent::.cpu.inst     0.760972                       # Average percentage of cache occupancy
system.cpu.icache.tags.occ_percent::total     0.760972                       # Average percentage of cache occupancy
system.cpu.icache.tags.occ_task_id_blocks::1024          390                       # Occupied blocks per task id
system.cpu.icache.tags.age_task_id_blocks_1024::1            4                       # Occupied blocks per task id
system.cpu.icache.tags.age_task_id_blocks_1024::4          386                       # Occupied blocks per task id
system.cpu.icache.tags.occ_task_id_percent::1024     0.761719                       # Percentage of cache occupancy per task id
system.cpu.icache.tags.tag_accesses          54007287                       # Number of tag accesses
system.cpu.icache.tags.data_accesses         54007287                       # Number of data accesses
system.cpu.icache.tags.power_state.pwrStateResidencyTicks::UNDEFINED 109232196000                       # Cumulative time (in ticks) in various power states
system.cpu.itb.instHits                             0                       # ITB inst hits
system.cpu.itb.instMisses                           0                       # ITB inst misses
system.cpu.itb.readHits                             0                       # DTB read hits
system.cpu.itb.readMisses                           0                       # DTB read misses
system.cpu.itb.writeHits                            0                       # DTB write hits
system.cpu.itb.writeMisses                          0                       # DTB write misses
system.cpu.itb.inserts                              0                       # Number of times an entry is inserted into the TLB
system.cpu.itb.flushTlb                             0                       # Number of times complete TLB was flushed
system.cpu.itb.flushTlbMva                          0                       # Number of times TLB was flushed by MVA
system.cpu.itb.flushTlbMvaAsid                      0                       # Number of times TLB was flushed by MVA & ASID
system.cpu.itb.flushTlbAsid                         0                       # Number of times TLB was flushed by ASID
system.cpu.itb.flushedEntries                       0                       # Number of entries that have been flushed from TLB
system.cpu.itb.alignFaults                          0                       # Number of TLB faults due to alignment restrictions
system.cpu.itb.prefetchFaults                       0                       # Number of TLB faults due to prefetch
system.cpu.itb.domainFaults                         0                       # Number of TLB faults due to domain restrictions
system.cpu.itb.permsFaults                          0                       # Number of TLB faults due to permissions restrictions
system.cpu.itb.readAccesses                         0                       # DTB read accesses
system.cpu.itb.writeAccesses                        0                       # DTB write accesses
system.cpu.itb.instAccesses                         0                       # ITB inst accesses
system.cpu.itb.hits                                 0                       # Total TLB (inst and data) hits
system.cpu.itb.misses                               0                       # Total TLB (inst and data) misses
system.cpu.itb.accesses                             0                       # Total TLB (inst and data) accesses
system.cpu.itb.stage2_mmu.stage2_tlb.instHits            0                       # ITB inst hits
system.cpu.itb.stage2_mmu.stage2_tlb.instMisses            0                       # ITB inst misses
system.cpu.itb.stage2_mmu.stage2_tlb.readHits            0                       # DTB read hits
system.cpu.itb.stage2_mmu.stage2_tlb.readMisses            0                       # DTB read misses
system.cpu.itb.stage2_mmu.stage2_tlb.writeHits            0                       # DTB write hits
system.cpu.itb.stage2_mmu.stage2_tlb.writeMisses            0                       # DTB write misses
system.cpu.itb.stage2_mmu.stage2_tlb.inserts            0                       # Number of times an entry is inserted into the TLB
system.cpu.itb.stage2_mmu.stage2_tlb.flushTlb            0                       # Number of times complete TLB was flushed
system.cpu.itb.stage2_mmu.stage2_tlb.flushTlbMva            0                       # Number of times TLB was flushed by MVA
system.cpu.itb.stage2_mmu.stage2_tlb.flushTlbMvaAsid            0                       # Number of times TLB was flushed by MVA & ASID
system.cpu.itb.stage2_mmu.stage2_tlb.flushTlbAsid            0                       # Number of times TLB was flushed by ASID
system.cpu.itb.stage2_mmu.stage2_tlb.flushedEntries            0                       # Number of entries that have been flushed from TLB
system.cpu.itb.stage2_mmu.stage2_tlb.alignFaults            0                       # Number of TLB faults due to alignment restrictions
system.cpu.itb.stage2_mmu.stage2_tlb.prefetchFaults            0                       # Number of TLB faults due to prefetch
system.cpu.itb.stage2_mmu.stage2_tlb.domainFaults            0                       # Number of TLB faults due to domain restrictions
system.cpu.itb.stage2_mmu.stage2_tlb.permsFaults            0                       # Number of TLB faults due to permissions restrictions
system.cpu.itb.stage2_mmu.stage2_tlb.readAccesses            0                       # DTB read accesses
system.cpu.itb.stage2_mmu.stage2_tlb.writeAccesses            0                       # DTB write accesses
system.cpu.itb.stage2_mmu.stage2_tlb.instAccesses            0                       # ITB inst accesses
system.cpu.itb.stage2_mmu.stage2_tlb.hits            0                       # Total TLB (inst and data) hits
system.cpu.itb.stage2_mmu.stage2_tlb.misses            0                       # Total TLB (inst and data) misses
system.cpu.itb.stage2_mmu.stage2_tlb.accesses            0                       # Total TLB (inst and data) accesses
system.cpu.itb.stage2_mmu.stage2_tlb.walker.walks            0                       # Table walker walks requested
system.cpu.itb.stage2_mmu.stage2_tlb.walker.requestOrigin_Requested::Data            0                       # Table walker requests started/completed, data/inst
system.cpu.itb.stage2_mmu.stage2_tlb.walker.requestOrigin_Requested::Inst            0                       # Table walker requests started/completed, data/inst
system.cpu.itb.stage2_mmu.stage2_tlb.walker.requestOrigin_Requested::total            0                       # Table walker requests started/completed, data/inst
system.cpu.itb.stage2_mmu.stage2_tlb.walker.requestOrigin_Completed::Data            0                       # Table walker requests started/completed, data/inst
system.cpu.itb.stage2_mmu.stage2_tlb.walker.requestOrigin_Completed::Inst            0                       # Table walker requests started/completed, data/inst
system.cpu.itb.stage2_mmu.stage2_tlb.walker.requestOrigin_Completed::total            0                       # Table walker requests started/completed, data/inst
system.cpu.itb.stage2_mmu.stage2_tlb.walker.requestOrigin::total            0                       # Table walker requests started/completed, data/inst
system.cpu.itb.stage2_mmu.stage2_tlb.walker.power_state.pwrStateResidencyTicks::UNDEFINED 109232196000                       # Cumulative time (in ticks) in various power states
system.cpu.itb.walker.walks                         0                       # Table walker walks requested
system.cpu.itb.walker.requestOrigin_Requested::Data            0                       # Table walker requests started/completed, data/inst
system.cpu.itb.walker.requestOrigin_Requested::Inst            0                       # Table walker requests started/completed, data/inst
system.cpu.itb.walker.requestOrigin_Requested::total            0                       # Table walker requests started/completed, data/inst
system.cpu.itb.walker.requestOrigin_Completed::Data            0                       # Table walker requests started/completed, data/inst
system.cpu.itb.walker.requestOrigin_Completed::Inst            0                       # Table walker requests started/completed, data/inst
system.cpu.itb.walker.requestOrigin_Completed::total            0                       # Table walker requests started/completed, data/inst
system.cpu.itb.walker.requestOrigin::total            0                       # Table walker requests started/completed, data/inst
system.cpu.itb.walker.power_state.pwrStateResidencyTicks::UNDEFINED 109232196000                       # Cumulative time (in ticks) in various power states
system.cpu.power_state.pwrStateResidencyTicks::ON 109232196000                       # Cumulative time (in ticks) in various power states
system.cpu.thread_0.numInsts                100000001                       # Number of Instructions committed
system.cpu.thread_0.numOps                  109139393                       # Number of Ops committed
system.cpu.thread_0.numMemRefs                      0                       # Number of Memory References
system.cpu_clk_domain.clock                      1000                       # Clock period in ticks
system.cpu_voltage_domain.voltage                   1                       # Voltage in Volts
system.l2.demand_hits::.cpu.inst                  491                       # number of demand (read+write) hits
system.l2.demand_hits::.cpu.data                13996                       # number of demand (read+write) hits
system.l2.demand_hits::total                    14487                       # number of demand (read+write) hits
system.l2.overall_hits::.cpu.inst                 491                       # number of overall hits
system.l2.overall_hits::.cpu.data               13996                       # number of overall hits
system.l2.overall_hits::total                   14487                       # number of overall hits
system.l2.demand_misses::.cpu.inst                506                       # number of demand (read+write) misses
system.l2.demand_misses::.cpu.data              38333                       # number of demand (read+write) misses
system.l2.demand_misses::total                  38839                       # number of demand (read+write) misses
system.l2.overall_misses::.cpu.inst               506                       # number of overall misses
system.l2.overall_misses::.cpu.data             38333                       # number of overall misses
system.l2.overall_misses::total                 38839                       # number of overall misses
system.l2.demand_miss_latency::.cpu.inst     48720000                       # number of demand (read+write) miss cycles
system.l2.demand_miss_latency::.cpu.data   4196701000                       # number of demand (read+write) miss cycles
system.l2.demand_miss_latency::total       4245421000                       # number of demand (read+write) miss cycles
system.l2.overall_miss_latency::.cpu.inst     48720000                       # number of overall miss cycles
system.l2.overall_miss_latency::.cpu.data   4196701000                       # number of overall miss cycles
system.l2.overall_miss_latency::total      4245421000                       # number of overall miss cycles
system.l2.demand_accesses::.cpu.inst              997                       # number of demand (read+write) accesses
system.l2.demand_accesses::.cpu.data            52329                       # number of demand (read+write) accesses
system.l2.demand_accesses::total                53326                       # number of demand (read+write) accesses
system.l2.overall_accesses::.cpu.inst             997                       # number of overall (read+write) accesses
system.l2.overall_accesses::.cpu.data           52329                       # number of overall (read+write) accesses
system.l2.overall_accesses::total               53326                       # number of overall (read+write) accesses
system.l2.demand_miss_rate::.cpu.inst        0.507523                       # miss rate for demand accesses
system.l2.demand_miss_rate::.cpu.data        0.732538                       # miss rate for demand accesses
system.l2.demand_miss_rate::total            0.728331                       # miss rate for demand accesses
system.l2.overall_miss_rate::.cpu.inst       0.507523                       # miss rate for overall accesses
system.l2.overall_miss_rate::.cpu.data       0.732538                       # miss rate for overall accesses
system.l2.overall_miss_rate::total           0.728331                       # miss rate for overall accesses
system.l2.demand_avg_miss_latency::.cpu.inst 96284.584980                       # average overall miss latency
system.l2.demand_avg_miss_latency::.cpu.data 109480.108523                       # average overall miss latency
system.l2.demand_avg_miss_latency::total 109308.195371                       # average overall miss latency
system.l2.overall_avg_miss_latency::.cpu.inst 96284.584980                       # average overall miss latency
system.l2.overall_avg_miss_latency::.cpu.data 109480.108523                       # average overall miss latency
system.l2.overall_avg_miss_latency::total 109308.195371                       # average overall miss latency
system.l2.blocked_cycles::no_mshrs                  0                       # number of cycles access was blocked
system.l2.blocked_cycles::no_targets                0                       # number of cycles access was blocked
system.l2.blocked::no_mshrs                         0                       # number of cycles access was blocked
system.l2.blocked::no_targets                       0                       # number of cycles access was blocked
system.l2.avg_blocked_cycles::no_mshrs            nan                       # average number of cycles each access was blocked
system.l2.avg_blocked_cycles::no_targets          nan                       # average number of cycles each access was blocked
system.l2.writebacks::.writebacks                5505                       # number of writebacks
system.l2.writebacks::total                      5505                       # number of writebacks
system.l2.demand_mshr_hits::.cpu.data               1                       # number of demand (read+write) MSHR hits
system.l2.demand_mshr_hits::total                   1                       # number of demand (read+write) MSHR hits
system.l2.overall_mshr_hits::.cpu.data              1                       # number of overall MSHR hits
system.l2.overall_mshr_hits::total                  1                       # number of overall MSHR hits
system.l2.demand_mshr_misses::.cpu.inst           506                       # number of demand (read+write) MSHR misses
system.l2.demand_mshr_misses::.cpu.data         38332                       # number of demand (read+write) MSHR misses
system.l2.demand_mshr_misses::total             38838                       # number of demand (read+write) MSHR misses
system.l2.overall_mshr_misses::.cpu.inst          506                       # number of overall MSHR misses
system.l2.overall_mshr_misses::.cpu.data        38332                       # number of overall MSHR misses
system.l2.overall_mshr_misses::total            38838                       # number of overall MSHR misses
system.l2.demand_mshr_miss_latency::.cpu.inst     38600000                       # number of demand (read+write) MSHR miss cycles
system.l2.demand_mshr_miss_latency::.cpu.data   3429974000                       # number of demand (read+write) MSHR miss cycles
system.l2.demand_mshr_miss_latency::total   3468574000                       # number of demand (read+write) MSHR miss cycles
system.l2.overall_mshr_miss_latency::.cpu.inst     38600000                       # number of overall MSHR miss cycles
system.l2.overall_mshr_miss_latency::.cpu.data   3429974000                       # number of overall MSHR miss cycles
system.l2.overall_mshr_miss_latency::total   3468574000                       # number of overall MSHR miss cycles
system.l2.demand_mshr_miss_rate::.cpu.inst     0.507523                       # mshr miss rate for demand accesses
system.l2.demand_mshr_miss_rate::.cpu.data     0.732519                       # mshr miss rate for demand accesses
system.l2.demand_mshr_miss_rate::total       0.728313                       # mshr miss rate for demand accesses
system.l2.overall_mshr_miss_rate::.cpu.inst     0.507523                       # mshr miss rate for overall accesses
system.l2.overall_mshr_miss_rate::.cpu.data     0.732519                       # mshr miss rate for overall accesses
system.l2.overall_mshr_miss_rate::total      0.728313                       # mshr miss rate for overall accesses
system.l2.demand_avg_mshr_miss_latency::.cpu.inst 76284.584980                       # average overall mshr miss latency
system.l2.demand_avg_mshr_miss_latency::.cpu.data 89480.694981                       # average overall mshr miss latency
system.l2.demand_avg_mshr_miss_latency::total 89308.769762                       # average overall mshr miss latency
system.l2.overall_avg_mshr_miss_latency::.cpu.inst 76284.584980                       # average overall mshr miss latency
system.l2.overall_avg_mshr_miss_latency::.cpu.data 89480.694981                       # average overall mshr miss latency
system.l2.overall_avg_mshr_miss_latency::total 89308.769762                       # average overall mshr miss latency
system.l2.replacements                           6080                       # number of replacements
system.l2.WritebackDirty_hits::.writebacks        48477                       # number of WritebackDirty hits
system.l2.WritebackDirty_hits::total            48477                       # number of WritebackDirty hits
system.l2.WritebackDirty_accesses::.writebacks        48477                       # number of WritebackDirty accesses(hits+misses)
system.l2.WritebackDirty_accesses::total        48477                       # number of WritebackDirty accesses(hits+misses)
system.l2.WritebackClean_hits::.writebacks          603                       # number of WritebackClean hits
system.l2.WritebackClean_hits::total              603                       # number of WritebackClean hits
system.l2.WritebackClean_accesses::.writebacks          603                       # number of WritebackClean accesses(hits+misses)
system.l2.WritebackClean_accesses::total          603                       # number of WritebackClean accesses(hits+misses)
system.l2.CleanEvict_mshr_misses::.writebacks            2                       # number of CleanEvict MSHR misses
system.l2.CleanEvict_mshr_misses::total             2                       # number of CleanEvict MSHR misses
system.l2.CleanEvict_mshr_miss_rate::.writebacks          inf                       # mshr miss rate for CleanEvict accesses
system.l2.CleanEvict_mshr_miss_rate::total          inf                       # mshr miss rate for CleanEvict accesses
system.l2.ReadExReq_hits::.cpu.data                23                       # number of ReadExReq hits
system.l2.ReadExReq_hits::total                    23                       # number of ReadExReq hits
system.l2.ReadExReq_misses::.cpu.data           37940                       # number of ReadExReq misses
system.l2.ReadExReq_misses::total               37940                       # number of ReadExReq misses
system.l2.ReadExReq_miss_latency::.cpu.data   4154033000                       # number of ReadExReq miss cycles
system.l2.ReadExReq_miss_latency::total    4154033000                       # number of ReadExReq miss cycles
system.l2.ReadExReq_accesses::.cpu.data         37963                       # number of ReadExReq accesses(hits+misses)
system.l2.ReadExReq_accesses::total             37963                       # number of ReadExReq accesses(hits+misses)
system.l2.ReadExReq_miss_rate::.cpu.data     0.999394                       # miss rate for ReadExReq accesses
system.l2.ReadExReq_miss_rate::total         0.999394                       # miss rate for ReadExReq accesses
system.l2.ReadExReq_avg_miss_latency::.cpu.data 109489.536110                       # average ReadExReq miss latency
system.l2.ReadExReq_avg_miss_latency::total 109489.536110                       # average ReadExReq miss latency
system.l2.ReadExReq_mshr_misses::.cpu.data        37940                       # number of ReadExReq MSHR misses
system.l2.ReadExReq_mshr_misses::total          37940                       # number of ReadExReq MSHR misses
system.l2.ReadExReq_mshr_miss_latency::.cpu.data   3395233000                       # number of ReadExReq MSHR miss cycles
system.l2.ReadExReq_mshr_miss_latency::total   3395233000                       # number of ReadExReq MSHR miss cycles
system.l2.ReadExReq_mshr_miss_rate::.cpu.data     0.999394                       # mshr miss rate for ReadExReq accesses
system.l2.ReadExReq_mshr_miss_rate::total     0.999394                       # mshr miss rate for ReadExReq accesses
system.l2.ReadExReq_avg_mshr_miss_latency::.cpu.data 89489.536110                       # average ReadExReq mshr miss latency
system.l2.ReadExReq_avg_mshr_miss_latency::total 89489.536110                       # average ReadExReq mshr miss latency
system.l2.ReadCleanReq_hits::.cpu.inst            491                       # number of ReadCleanReq hits
system.l2.ReadCleanReq_hits::total                491                       # number of ReadCleanReq hits
system.l2.ReadCleanReq_misses::.cpu.inst          506                       # number of ReadCleanReq misses
system.l2.ReadCleanReq_misses::total              506                       # number of ReadCleanReq misses
system.l2.ReadCleanReq_miss_latency::.cpu.inst     48720000                       # number of ReadCleanReq miss cycles
system.l2.ReadCleanReq_miss_latency::total     48720000                       # number of ReadCleanReq miss cycles
system.l2.ReadCleanReq_accesses::.cpu.inst          997                       # number of ReadCleanReq accesses(hits+misses)
system.l2.ReadCleanReq_accesses::total            997                       # number of ReadCleanReq accesses(hits+misses)
system.l2.ReadCleanReq_miss_rate::.cpu.inst     0.507523                       # miss rate for ReadCleanReq accesses
system.l2.ReadCleanReq_miss_rate::total      0.507523                       # miss rate for ReadCleanReq accesses
system.l2.ReadCleanReq_avg_miss_latency::.cpu.inst 96284.584980                       # average ReadCleanReq miss latency
system.l2.ReadCleanReq_avg_miss_latency::total 96284.584980                       # average ReadCleanReq miss latency
system.l2.ReadCleanReq_mshr_misses::.cpu.inst          506                       # number of ReadCleanReq MSHR misses
system.l2.ReadCleanReq_mshr_misses::total          506                       # number of ReadCleanReq MSHR misses
system.l2.ReadCleanReq_mshr_miss_latency::.cpu.inst     38600000                       # number of ReadCleanReq MSHR miss cycles
system.l2.ReadCleanReq_mshr_miss_latency::total     38600000                       # number of ReadCleanReq MSHR miss cycles
system.l2.ReadCleanReq_mshr_miss_rate::.cpu.inst     0.507523                       # mshr miss rate for ReadCleanReq accesses
system.l2.ReadCleanReq_mshr_miss_rate::total     0.507523                       # mshr miss rate for ReadCleanReq accesses
system.l2.ReadCleanReq_avg_mshr_miss_latency::.cpu.inst 76284.584980                       # average ReadCleanReq mshr miss latency
system.l2.ReadCleanReq_avg_mshr_miss_latency::total 76284.584980                       # average ReadCleanReq mshr miss latency
system.l2.ReadSharedReq_hits::.cpu.data         13973                       # number of ReadSharedReq hits
system.l2.ReadSharedReq_hits::total             13973                       # number of ReadSharedReq hits
system.l2.ReadSharedReq_misses::.cpu.data          393                       # number of ReadSharedReq misses
system.l2.ReadSharedReq_misses::total             393                       # number of ReadSharedReq misses
system.l2.ReadSharedReq_miss_latency::.cpu.data     42668000                       # number of ReadSharedReq miss cycles
system.l2.ReadSharedReq_miss_latency::total     42668000                       # number of ReadSharedReq miss cycles
system.l2.ReadSharedReq_accesses::.cpu.data        14366                       # number of ReadSharedReq accesses(hits+misses)
system.l2.ReadSharedReq_accesses::total         14366                       # number of ReadSharedReq accesses(hits+misses)
system.l2.ReadSharedReq_miss_rate::.cpu.data     0.027356                       # miss rate for ReadSharedReq accesses
system.l2.ReadSharedReq_miss_rate::total     0.027356                       # miss rate for ReadSharedReq accesses
system.l2.ReadSharedReq_avg_miss_latency::.cpu.data 108569.974555                       # average ReadSharedReq miss latency
system.l2.ReadSharedReq_avg_miss_latency::total 108569.974555                       # average ReadSharedReq miss latency
system.l2.ReadSharedReq_mshr_hits::.cpu.data            1                       # number of ReadSharedReq MSHR hits
system.l2.ReadSharedReq_mshr_hits::total            1                       # number of ReadSharedReq MSHR hits
system.l2.ReadSharedReq_mshr_misses::.cpu.data          392                       # number of ReadSharedReq MSHR misses
system.l2.ReadSharedReq_mshr_misses::total          392                       # number of ReadSharedReq MSHR misses
system.l2.ReadSharedReq_mshr_miss_latency::.cpu.data     34741000                       # number of ReadSharedReq MSHR miss cycles
system.l2.ReadSharedReq_mshr_miss_latency::total     34741000                       # number of ReadSharedReq MSHR miss cycles
system.l2.ReadSharedReq_mshr_miss_rate::.cpu.data     0.027287                       # mshr miss rate for ReadSharedReq accesses
system.l2.ReadSharedReq_mshr_miss_rate::total     0.027287                       # mshr miss rate for ReadSharedReq accesses
system.l2.ReadSharedReq_avg_mshr_miss_latency::.cpu.data        88625                       # average ReadSharedReq mshr miss latency
system.l2.ReadSharedReq_avg_mshr_miss_latency::total        88625                       # average ReadSharedReq mshr miss latency
system.l2.power_state.pwrStateResidencyTicks::UNDEFINED 109232196000                       # Cumulative time (in ticks) in various power states
system.l2.tags.tagsinuse                 26044.157210                       # Cycle average of tags in use
system.l2.tags.total_refs                      105218                       # Total number of references to valid blocks.
system.l2.tags.sampled_refs                     38848                       # Sample count of references to valid blocks.
system.l2.tags.avg_refs                      2.708453                       # Average number of references to valid blocks.
system.l2.tags.warmup_cycle                     87000                       # Cycle when the warmup percentage was hit.
system.l2.tags.occ_blocks::.writebacks       1.069920                       # Average occupied blocks per requestor
system.l2.tags.occ_blocks::.cpu.inst       266.791003                       # Average occupied blocks per requestor
system.l2.tags.occ_blocks::.cpu.data     25776.296286                       # Average occupied blocks per requestor
system.l2.tags.occ_percent::.writebacks      0.000033                       # Average percentage of cache occupancy
system.l2.tags.occ_percent::.cpu.inst        0.008142                       # Average percentage of cache occupancy
system.l2.tags.occ_percent::.cpu.data        0.786630                       # Average percentage of cache occupancy
system.l2.tags.occ_percent::total            0.794805                       # Average percentage of cache occupancy
system.l2.tags.occ_task_id_blocks::1024         32768                       # Occupied blocks per task id
system.l2.tags.age_task_id_blocks_1024::0            2                       # Occupied blocks per task id
system.l2.tags.age_task_id_blocks_1024::1           17                       # Occupied blocks per task id
system.l2.tags.age_task_id_blocks_1024::2          189                       # Occupied blocks per task id
system.l2.tags.age_task_id_blocks_1024::3         1858                       # Occupied blocks per task id
system.l2.tags.age_task_id_blocks_1024::4        30702                       # Occupied blocks per task id
system.l2.tags.occ_task_id_percent::1024            1                       # Percentage of cache occupancy per task id
system.l2.tags.tag_accesses                    249290                       # Number of tag accesses
system.l2.tags.data_accesses                   249290                       # Number of data accesses
system.l2.tags.power_state.pwrStateResidencyTicks::UNDEFINED 109232196000                       # Cumulative time (in ticks) in various power states
system.mem_ctrls.avgPriority_.writebacks::samples      5505.00                       # Average QoS priority value for accepted requests
system.mem_ctrls.avgPriority_.cpu.inst::samples       506.00                       # Average QoS priority value for accepted requests
system.mem_ctrls.avgPriority_.cpu.data::samples     38328.00                       # Average QoS priority value for accepted requests
system.mem_ctrls.priorityMinLatency      0.000000018750                       # per QoS priority minimum request to response latency (s)
system.mem_ctrls.priorityMaxLatency      0.059591300500                       # per QoS priority maximum request to response latency (s)
system.mem_ctrls.numReadWriteTurnArounds          304                       # Number of turnarounds from READ to WRITE
system.mem_ctrls.numWriteReadTurnArounds          304                       # Number of turnarounds from WRITE to READ
system.mem_ctrls.numStayReadState              111209                       # Number of times bus staying in READ state
system.mem_ctrls.numStayWriteState               5188                       # Number of times bus staying in WRITE state
system.mem_ctrls.readReqs                       38838                       # Number of read requests accepted
system.mem_ctrls.writeReqs                       5505                       # Number of write requests accepted
system.mem_ctrls.readBursts                     38838                       # Number of controller read bursts, including those serviced by the write queue
system.mem_ctrls.writeBursts                     5505                       # Number of controller write bursts, including those merged in the write queue
system.mem_ctrls.servicedByWrQ                      4                       # Number of controller read bursts serviced by the write queue
system.mem_ctrls.mergedWrBursts                     0                       # Number of controller write bursts merged with an existing one
system.mem_ctrls.neitherReadNorWriteReqs            0                       # Number of requests that are neither read nor write
system.mem_ctrls.avgRdQLen                       1.00                       # Average read queue length when enqueuing
system.mem_ctrls.avgWrQLen                      12.68                       # Average write queue length when enqueuing
system.mem_ctrls.numRdRetry                         0                       # Number of times read queue was full causing retry
system.mem_ctrls.numWrRetry                         0                       # Number of times write queue was full causing retry
system.mem_ctrls.readPktSize::0                     0                       # Read request sizes (log2)
system.mem_ctrls.readPktSize::1                     0                       # Read request sizes (log2)
system.mem_ctrls.readPktSize::2                     0                       # Read request sizes (log2)
system.mem_ctrls.readPktSize::3                     0                       # Read request sizes (log2)
system.mem_ctrls.readPktSize::4                     0                       # Read request sizes (log2)
system.mem_ctrls.readPktSize::5                     0                       # Read request sizes (log2)
system.mem_ctrls.readPktSize::6                 38838                       # Read request sizes (log2)
system.mem_ctrls.writePktSize::0                    0                       # Write request sizes (log2)
system.mem_ctrls.writePktSize::1                    0                       # Write request sizes (log2)
system.mem_ctrls.writePktSize::2                    0                       # Write request sizes (log2)
system.mem_ctrls.writePktSize::3                    0                       # Write request sizes (log2)
system.mem_ctrls.writePktSize::4                    0                       # Write request sizes (log2)
system.mem_ctrls.writePktSize::5                    0                       # Write request sizes (log2)
system.mem_ctrls.writePktSize::6                 5505                       # Write request sizes (log2)
system.mem_ctrls.rdQLenPdf::0                   38705                       # What read queue length does an incoming req see
system.mem_ctrls.rdQLenPdf::1                     123                       # What read queue length does an incoming req see
system.mem_ctrls.rdQLenPdf::2                       6                       # What read queue length does an incoming req see
system.mem_ctrls.rdQLenPdf::3                       0                       # What read queue length does an incoming req see
system.mem_ctrls.rdQLenPdf::4                       0                       # What read queue length does an incoming req see
system.mem_ctrls.rdQLenPdf::5                       0                       # What read queue length does an incoming req see
system.mem_ctrls.rdQLenPdf::6                       0                       # What read queue length does an incoming req see
[...]
system.mem_ctrls.dram.bw_write::.writebacks      3225423                       # Write bandwidth from this memory (bytes/s)
system.mem_ctrls.dram.bw_write::total         3225423                       # Write bandwidth from this memory (bytes/s)
system.mem_ctrls.dram.bw_total::.writebacks      3225423                       # Total bandwidth to/from this memory (bytes/s)
system.mem_ctrls.dram.bw_total::.cpu.inst       296469                       # Total bandwidth to/from this memory (bytes/s)
system.mem_ctrls.dram.bw_total::.cpu.data     22459019                       # Total bandwidth to/from this memory (bytes/s)
system.mem_ctrls.dram.bw_total::total        25980911                       # Total bandwidth to/from this memory (bytes/s)
system.mem_ctrls.dram.readBursts                38834                       # Number of DRAM read bursts
system.mem_ctrls.dram.writeBursts                5477                       # Number of DRAM write bursts
system.mem_ctrls.dram.perBankRdBursts::0         2373                       # Per bank write bursts
system.mem_ctrls.dram.perBankRdBursts::1         2350                       # Per bank write bursts
system.mem_ctrls.dram.perBankRdBursts::2         2387                       # Per bank write bursts
system.mem_ctrls.dram.perBankRdBursts::3         2487                       # Per bank write bursts
system.mem_ctrls.dram.perBankRdBursts::4         2461                       # Per bank write bursts
system.mem_ctrls.dram.perBankRdBursts::5         2471                       # Per bank write bursts
system.mem_ctrls.dram.perBankRdBursts::6         2487                       # Per bank write bursts
system.mem_ctrls.dram.perBankRdBursts::7         2513                       # Per bank write bursts
system.mem_ctrls.dram.perBankRdBursts::8         2494                       # Per bank write bursts
system.mem_ctrls.dram.perBankRdBursts::9         2475                       # Per bank write bursts
system.mem_ctrls.dram.perBankRdBursts::10         2507                       # Per bank write bursts
system.mem_ctrls.dram.perBankRdBursts::11         2456                       # Per bank write bursts
system.mem_ctrls.dram.perBankRdBursts::12         2315                       # Per bank write bursts
system.mem_ctrls.dram.perBankRdBursts::13         2364                       # Per bank write bursts
system.mem_ctrls.dram.perBankRdBursts::14         2339                       # Per bank write bursts
system.mem_ctrls.dram.perBankRdBursts::15         2355                       # Per bank write bursts
system.mem_ctrls.dram.perBankWrBursts::0          281                       # Per bank write bursts
system.mem_ctrls.dram.perBankWrBursts::1          270                       # Per bank write bursts
system.mem_ctrls.dram.perBankWrBursts::2          325                       # Per bank write bursts
system.mem_ctrls.dram.perBankWrBursts::3          401                       # Per bank write bursts
system.mem_ctrls.dram.perBankWrBursts::4          333                       # Per bank write bursts
system.mem_ctrls.dram.perBankWrBursts::5          373                       # Per bank write bursts
system.mem_ctrls.dram.perBankWrBursts::6          409                       # Per bank write bursts
system.mem_ctrls.dram.perBankWrBursts::7          396                       # Per bank write bursts
system.mem_ctrls.dram.perBankWrBursts::8          398                       # Per bank write bursts
system.mem_ctrls.dram.perBankWrBursts::9          408                       # Per bank write bursts
system.mem_ctrls.dram.perBankWrBursts::10          390                       # Per bank write bursts
system.mem_ctrls.dram.perBankWrBursts::11          362                       # Per bank write bursts
system.mem_ctrls.dram.perBankWrBursts::12          266                       # Per bank write bursts
system.mem_ctrls.dram.perBankWrBursts::13          298                       # Per bank write bursts
system.mem_ctrls.dram.perBankWrBursts::14          282                       # Per bank write bursts
system.mem_ctrls.dram.perBankWrBursts::15          285                       # Per bank write bursts
system.mem_ctrls.dram.totQLat               746198500                       # Total ticks spent queuing
system.mem_ctrls.dram.totBusLat             194170000                       # Total ticks spent in databus transfers
system.mem_ctrls.dram.totMemAccLat         1474336000                       # Total ticks spent from burst creation until serviced by the DRAM
system.mem_ctrls.dram.avgQLat                19215.08                       # Average queueing delay per DRAM burst
system.mem_ctrls.dram.avgBusLat               5000.00                       # Average bus latency per DRAM burst
system.mem_ctrls.dram.avgMemAccLat           37965.08                       # Average memory access latency per DRAM burst
system.mem_ctrls.dram.readRowHits               22058                       # Number of row buffer hits during reads
system.mem_ctrls.dram.writeRowHits               4714                       # Number of row buffer hits during writes
system.mem_ctrls.dram.readRowHitRate            56.80                       # Row buffer hit rate for reads
system.mem_ctrls.dram.writeRowHitRate           86.07                       # Row buffer hit rate for writes
system.mem_ctrls.dram.bytesPerActivate::samples        17538                       # Bytes accessed per row activation
system.mem_ctrls.dram.bytesPerActivate::mean   161.696887                       # Bytes accessed per row activation
system.mem_ctrls.dram.bytesPerActivate::gmean   122.315093                       # Bytes accessed per row activation
system.mem_ctrls.dram.bytesPerActivate::stdev   158.169133                       # Bytes accessed per row activation
system.mem_ctrls.dram.bytesPerActivate::0-127         6874     39.19%     39.19% # Bytes accessed per row activation
system.mem_ctrls.dram.bytesPerActivate::128-255         7518     42.87%     82.06% # Bytes accessed per row activation
system.mem_ctrls.dram.bytesPerActivate::256-383         1204      6.87%     88.93% # Bytes accessed per row activation
system.mem_ctrls.dram.bytesPerActivate::384-511         1073      6.12%     95.05% # Bytes accessed per row activation
system.mem_ctrls.dram.bytesPerActivate::512-639          490      2.79%     97.84% # Bytes accessed per row activation
system.mem_ctrls.dram.bytesPerActivate::640-767          107      0.61%     98.45% # Bytes accessed per row activation
system.mem_ctrls.dram.bytesPerActivate::768-895           31      0.18%     98.63% # Bytes accessed per row activation
system.mem_ctrls.dram.bytesPerActivate::896-1023           42      0.24%     98.87% # Bytes accessed per row activation
system.mem_ctrls.dram.bytesPerActivate::1024-1151          199      1.13%    100.00% # Bytes accessed per row activation
system.mem_ctrls.dram.bytesPerActivate::total        17538                       # Bytes accessed per row activation
system.mem_ctrls.dram.bytesRead               2485376                       # Total number of bytes read from DRAM
system.mem_ctrls.dram.bytesWritten             350528                       # Total number of bytes written to DRAM
system.mem_ctrls.dram.avgRdBW               22.753145                       # Average DRAM read bandwidth in MiBytes/s
system.mem_ctrls.dram.avgWrBW                3.209017                       # Average DRAM write bandwidth in MiBytes/s
system.mem_ctrls.dram.peakBW                 12800.00                       # Theoretical peak bandwidth in MiByte/s
system.mem_ctrls.dram.busUtil                    0.20                       # Data bus utilization in percentage
system.mem_ctrls.dram.busUtilRead                0.18                       # Data bus utilization in percentage for reads
system.mem_ctrls.dram.busUtilWrite               0.03                       # Data bus utilization in percentage for writes
system.mem_ctrls.dram.pageHitRate               60.42                       # Row buffer hit rate, read and write combined
system.mem_ctrls.dram.power_state.pwrStateResidencyTicks::UNDEFINED 109232196000                       # Cumulative time (in ticks) in various power states
system.mem_ctrls.dram.rank0.actEnergy        63281820                       # Energy for activate commands per rank (pJ)
system.mem_ctrls.dram.rank0.preEnergy        33635085                       # Energy for precharge commands per rank (pJ)
system.mem_ctrls.dram.rank0.readEnergy      139437060                       # Energy for read commands per rank (pJ)
system.mem_ctrls.dram.rank0.writeEnergy      14553360                       # Energy for write commands per rank (pJ)
system.mem_ctrls.dram.rank0.refreshEnergy 8622169920.000002                       # Energy for refresh commands per rank (pJ)
system.mem_ctrls.dram.rank0.actBackEnergy  20437071270                       # Energy for active background per rank (pJ)
system.mem_ctrls.dram.rank0.preBackEnergy  24734998080                       # Energy for precharge background per rank (pJ)
system.mem_ctrls.dram.rank0.actPowerDownEnergy            0                       # Energy for active power-down per rank (pJ)
system.mem_ctrls.dram.rank0.prePowerDownEnergy            0                       # Energy for precharge power-down per rank (pJ)
system.mem_ctrls.dram.rank0.selfRefreshEnergy            0                       # Energy for self refresh per rank (pJ)
system.mem_ctrls.dram.rank0.totalEnergy   54045146595                       # Total energy per rank (pJ)
system.mem_ctrls.dram.rank0.averagePower   494.773048                       # Core power per rank (mW)
system.mem_ctrls.dram.rank0.totalIdleTime            0                       # Total Idle time Per DRAM Rank
system.mem_ctrls.dram.rank0.pwrStateTime::IDLE  64114418250                       # Time in different power states
system.mem_ctrls.dram.rank0.pwrStateTime::REF   3647280000                       # Time in different power states
system.mem_ctrls.dram.rank0.pwrStateTime::SREF            0                       # Time in different power states
system.mem_ctrls.dram.rank0.pwrStateTime::PRE_PDN            0                       # Time in different power states
system.mem_ctrls.dram.rank0.pwrStateTime::ACT  41470497750                       # Time in different power states
system.mem_ctrls.dram.rank0.pwrStateTime::ACT_PDN            0                       # Time in different power states
system.mem_ctrls.dram.rank1.actEnergy        61946640                       # Energy for activate commands per rank (pJ)
system.mem_ctrls.dram.rank1.preEnergy        32921625                       # Energy for precharge commands per rank (pJ)
system.mem_ctrls.dram.rank1.readEnergy      137837700                       # Energy for read commands per rank (pJ)
system.mem_ctrls.dram.rank1.writeEnergy      14036580                       # Energy for write commands per rank (pJ)
system.mem_ctrls.dram.rank1.refreshEnergy 8622169920.000002                       # Energy for refresh commands per rank (pJ)
system.mem_ctrls.dram.rank1.actBackEnergy  20362025640                       # Energy for active background per rank (pJ)
system.mem_ctrls.dram.rank1.preBackEnergy  24798194400                       # Energy for precharge background per rank (pJ)
system.mem_ctrls.dram.rank1.actPowerDownEnergy            0                       # Energy for active power-down per rank (pJ)
system.mem_ctrls.dram.rank1.prePowerDownEnergy            0                       # Energy for precharge power-down per rank (pJ)
system.mem_ctrls.dram.rank1.selfRefreshEnergy            0                       # Energy for self refresh per rank (pJ)
system.mem_ctrls.dram.rank1.totalEnergy   54029132505                       # Total energy per rank (pJ)
system.mem_ctrls.dram.rank1.averagePower   494.626442                       # Core power per rank (mW)
system.mem_ctrls.dram.rank1.totalIdleTime            0                       # Total Idle time Per DRAM Rank
system.mem_ctrls.dram.rank1.pwrStateTime::IDLE  64281040500                       # Time in different power states
system.mem_ctrls.dram.rank1.pwrStateTime::REF   3647280000                       # Time in different power states
system.mem_ctrls.dram.rank1.pwrStateTime::SREF            0                       # Time in different power states
system.mem_ctrls.dram.rank1.pwrStateTime::PRE_PDN            0                       # Time in different power states
system.mem_ctrls.dram.rank1.pwrStateTime::ACT  41303875500                       # Time in different power states
system.mem_ctrls.dram.rank1.pwrStateTime::ACT_PDN            0                       # Time in different power states
system.mem_ctrls.power_state.pwrStateResidencyTicks::UNDEFINED 109232196000                       # Cumulative time (in ticks) in various power states
system.membus.trans_dist::ReadResp                898                       # Transaction distribution
system.membus.trans_dist::WritebackDirty         5505                       # Transaction distribution
system.membus.trans_dist::CleanEvict              167                       # Transaction distribution
system.membus.trans_dist::ReadExReq             37940                       # Transaction distribution
system.membus.trans_dist::ReadExResp            37940                       # Transaction distribution
system.membus.trans_dist::ReadSharedReq           898                       # Transaction distribution
system.membus.pkt_count_system.l2.mem_side_port::system.mem_ctrls.port        83348                       # Packet count per connected requestor and responder (bytes)
system.membus.pkt_count::total                  83348                       # Packet count per connected requestor and responder (bytes)
system.membus.pkt_size_system.l2.mem_side_port::system.mem_ctrls.port      2837952                       # Cumulative packet size per connected requestor and responder (bytes)
system.membus.pkt_size::total                 2837952                       # Cumulative packet size per connected requestor and responder (bytes)
system.membus.snoops                                0                       # Total snoops (count)
system.membus.snoopTraffic                          0                       # Total snoop traffic (bytes)
system.membus.snoop_fanout::samples             38838                       # Request fanout histogram
system.membus.snoop_fanout::mean                    0                       # Request fanout histogram
system.membus.snoop_fanout::stdev                   0                       # Request fanout histogram
system.membus.snoop_fanout::underflows              0      0.00%      0.00% # Request fanout histogram
system.membus.snoop_fanout::0                   38838    100.00%    100.00% # Request fanout histogram
system.membus.snoop_fanout::1                       0      0.00%    100.00% # Request fanout histogram
system.membus.snoop_fanout::overflows               0      0.00%    100.00% # Request fanout histogram
system.membus.snoop_fanout::min_value               0                       # Request fanout histogram
system.membus.snoop_fanout::max_value               0                       # Request fanout histogram
system.membus.snoop_fanout::total               38838                       # Request fanout histogram
system.membus.power_state.pwrStateResidencyTicks::UNDEFINED 109232196000                       # Cumulative time (in ticks) in various power states
system.membus.reqLayer0.occupancy            66530000                       # Layer occupancy (ticks)
system.membus.reqLayer0.utilization               0.1                       # Layer utilization (%)
system.membus.respLayer1.occupancy          207722000                       # Layer occupancy (ticks)
system.membus.respLayer1.utilization              0.2                       # Layer utilization (%)
system.tol2bus.trans_dist::ReadResp             15363                       # Transaction distribution
system.tol2bus.trans_dist::WritebackDirty        53982                       # Transaction distribution
system.tol2bus.trans_dist::WritebackClean          607                       # Transaction distribution
system.tol2bus.trans_dist::CleanEvict            3403                       # Transaction distribution
system.tol2bus.trans_dist::ReadExReq            37963                       # Transaction distribution
system.tol2bus.trans_dist::ReadExResp           37963                       # Transaction distribution
system.tol2bus.trans_dist::ReadCleanReq           997                       # Transaction distribution
system.tol2bus.trans_dist::ReadSharedReq        14366                       # Transaction distribution
system.tol2bus.pkt_count_system.cpu.icache.mem_side_port::system.l2.cpu_side_port         2601                       # Packet count per connected requestor and responder (bytes)
system.tol2bus.pkt_count_system.cpu.dcache.mem_side_port::system.l2.cpu_side_port       155963                       # Packet count per connected requestor and responder (bytes)
system.tol2bus.pkt_count::total                158564                       # Packet count per connected requestor and responder (bytes)
system.tol2bus.pkt_size_system.cpu.icache.mem_side_port::system.l2.cpu_side_port       102656                       # Cumulative packet size per connected requestor and responder (bytes)
system.tol2bus.pkt_size_system.cpu.dcache.mem_side_port::system.l2.cpu_side_port      6451584                       # Cumulative packet size per connected requestor and responder (bytes)
system.tol2bus.pkt_size::total                6554240                       # Cumulative packet size per connected requestor and responder (bytes)
system.tol2bus.snoops                            6080                       # Total snoops (count)
system.tol2bus.snoopTraffic                    352320                       # Total snoop traffic (bytes)
system.tol2bus.snoop_fanout::samples            59406                       # Request fanout histogram
system.tol2bus.snoop_fanout::mean            0.007221                       # Request fanout histogram
system.tol2bus.snoop_fanout::stdev           0.084673                       # Request fanout histogram
system.tol2bus.snoop_fanout::underflows             0      0.00%      0.00% # Request fanout histogram
system.tol2bus.snoop_fanout::0                  58977     99.28%     99.28% # Request fanout histogram
system.tol2bus.snoop_fanout::1                    429      0.72%    100.00% # Request fanout histogram
system.tol2bus.snoop_fanout::2                      0      0.00%    100.00% # Request fanout histogram
system.tol2bus.snoop_fanout::overflows              0      0.00%    100.00% # Request fanout histogram
system.tol2bus.snoop_fanout::min_value              0                       # Request fanout histogram
system.tol2bus.snoop_fanout::max_value              1                       # Request fanout histogram
system.tol2bus.snoop_fanout::total              59406                       # Request fanout histogram
system.tol2bus.power_state.pwrStateResidencyTicks::UNDEFINED 109232196000                       # Cumulative time (in ticks) in various power states
system.tol2bus.reqLayer0.occupancy          203406000                       # Layer occupancy (ticks)
system.tol2bus.reqLayer0.utilization              0.2                       # Layer utilization (%)
system.tol2bus.respLayer0.occupancy           2991000                       # Layer occupancy (ticks)
system.tol2bus.respLayer0.utilization             0.0                       # Layer utilization (%)
system.tol2bus.respLayer1.occupancy         156987999                       # Layer occupancy (ticks)
system.tol2bus.respLayer1.utilization             0.1                       # Layer utilization (%)
system.voltage_domain.voltage                       1                       # Voltage in Volts

---------- End Simulation Statistics   ----------
