
---------- Begin Simulation Statistics ----------
final_tick                               107306188000                       # Number of ticks from beginning of simulation (restored from checkpoints and never reset)
host_inst_rate                                 196165                       # Simulator instruction rate (inst/s)
host_mem_usage                                 717248                       # Number of bytes of host memory used
host_op_rate                                   214094                       # Simulator op (including micro ops) rate (op/s)
host_seconds                                   509.77                       # Real time elapsed on the host
host_tick_rate                              210497611                       # Simulator tick rate (ticks/s)
sim_freq                                 1000000000000                       # Frequency of simulated ticks
sim_insts                                   100000001                       # Number of instructions simulated
sim_ops                                     109139393                       # Number of ops (including micro ops) simulated
sim_seconds                                  0.107306                       # Number of seconds simulated
sim_ticks                                107306188000                       # Number of ticks simulated
system.cpu.committedInsts                   100000001                       # Number of instructions committed
system.cpu.committedOps                     109139393                       # Number of ops (including micro ops) committed
system.cpu.cpi                               1.073062                       # CPI: cycles per instruction
system.cpu.discardedOps                        431023                       # Number of ops (including micro ops) which were discarded before commit
system.cpu.idleCycles                         1811807                       # Total number of cycles that the object has spent stopped
system.cpu.ipc                               0.931913                       # IPC: instructions per cycle
system.cpu.numCycles                        107306188                       # number of cpu cycles simulated
system.cpu.numFetchSuspends                         0                       # Number of times Execute suspended instruction fetching
system.cpu.numWorkItemsCompleted                    0                       # number of work items this cpu completed
system.cpu.numWorkItemsStarted                      0                       # number of work items this cpu started
system.cpu.op_class_0::No_OpClass                   0      0.00%      0.00% # Class of committed instruction
system.cpu.op_class_0::IntAlu                72222733     66.17%     66.17% # Class of committed instruction
system.cpu.op_class_0::IntMult                 547028      0.50%     66.68% # Class of committed instruction
system.cpu.op_class_0::IntDiv                       0      0.00%     66.68% # Class of committed instruction
system.cpu.op_class_0::FloatAdd                     0      0.00%     66.68% # Class of committed instruction
system.cpu.op_class_0::FloatCmp                     0      0.00%     66.68% # Class of committed instruction
system.cpu.op_class_0::FloatCvt                     0      0.00%     66.68% # Class of committed instruction
system.cpu.op_class_0::FloatMult                    0      0.00%     66.68% # Class of committed instruction
system.cpu.op_class_0::FloatMultAcc                 0      0.00%     66.68% # Class of committed instruction
system.cpu.op_class_0::FloatDiv                     0      0.00%     66.68% # Class of committed instruction
system.cpu.op_class_0::FloatMisc                    0      0.00%     66.68% # Class of committed instruction
system.cpu.op_class_0::FloatSqrt                    0      0.00%     66.68% # Class of committed instruction
system.cpu.op_class_0::SimdAdd                 231656      0.21%     66.89% # Class of committed instruction
system.cpu.op_class_0::SimdAddAcc                   0      0.00%     66.89% # Class of committed instruction
system.cpu.op_class_0::SimdAlu                 148482      0.14%     67.02% # Class of committed instruction
system.cpu.op_class_0::SimdCmp                 115828      0.11%     67.13% # Class of committed instruction
system.cpu.op_class_0::SimdCvt                      0      0.00%     67.13% # Class of committed instruction
system.cpu.op_class_0::SimdMisc                 42808      0.04%     67.17% # Class of committed instruction
system.cpu.op_class_0::SimdMult                     0      0.00%     67.17% # Class of committed instruction
system.cpu.op_class_0::SimdMultAcc                  0      0.00%     67.17% # Class of committed instruction
system.cpu.op_class_0::SimdShift                    0      0.00%     67.17% # Class of committed instruction
system.cpu.op_class_0::SimdShiftAcc                 0      0.00%     67.17% # Class of committed instruction
system.cpu.op_class_0::SimdDiv                      0      0.00%     67.17% # Class of committed instruction
system.cpu.op_class_0::SimdSqrt                     0      0.00%     67.17% # Class of committed instruction
system.cpu.op_class_0::SimdFloatAdd                 0      0.00%     67.17% # Class of committed instruction
system.cpu.op_class_0::SimdFloatAlu                 0      0.00%     67.17% # Class of committed instruction
system.cpu.op_class_0::SimdFloatCmp                 0      0.00%     67.17% # Class of committed instruction
system.cpu.op_class_0::SimdFloatCvt                 0      0.00%     67.17% # Class of committed instruction
system.cpu.op_class_0::SimdFloatDiv                 0      0.00%     67.17% # Class of committed instruction
system.cpu.op_class_0::SimdFloatMisc           159857      0.15%     67.32% # Class of committed instruction
system.cpu.op_class_0::SimdFloatMult                0      0.00%     67.32% # Class of committed instruction
system.cpu.op_class_0::SimdFloatMultAcc             0      0.00%     67.32% # Class of committed instruction
system.cpu.op_class_0::SimdFloatSqrt                0      0.00%     67.32% # Class of committed instruction
system.cpu.op_class_0::SimdReduceAdd                0      0.00%     67.32% # Class of committed instruction
system.cpu.op_class_0::SimdReduceAlu                0      0.00%     67.32% # Class of committed instruction
system.cpu.op_class_0::SimdReduceCmp                0      0.00%     67.32% # Class of committed instruction
system.cpu.op_class_0::SimdFloatReduceAdd            0      0.00%     67.32% # Class of committed instruction
system.cpu.op_class_0::SimdFloatReduceCmp            0      0.00%     67.32% # Class of committed instruction
system.cpu.op_class_0::SimdAes                      0      0.00%     67.32% # Class of committed instruction
system.cpu.op_class_0::SimdAesMix                   0      0.00%     67.32% # Class of committed instruction
system.cpu.op_class_0::SimdSha1Hash                 0      0.00%     67.32% # Class of committed instruction
system.cpu.op_class_0::SimdSha1Hash2                0      0.00%     67.32% # Class of committed instruction
system.cpu.op_class_0::SimdSha256Hash               0      0.00%     67.32% # Class of committed instruction
system.cpu.op_class_0::SimdSha256Hash2              0      0.00%     67.32% # Class of committed instruction
system.cpu.op_class_0::SimdShaSigma2                0      0.00%     67.32% # Class of committed instruction
system.cpu.op_class_0::SimdShaSigma3                0      0.00%     67.32% # Class of committed instruction
system.cpu.op_class_0::SimdPredAlu                  0      0.00%     67.32% # Class of committed instruction
system.cpu.op_class_0::MemRead               20932683     19.18%     86.50% # Class of committed instruction
system.cpu.op_class_0::MemWrite              14738318     13.50%    100.00% # Class of committed instruction
system.cpu.op_class_0::FloatMemRead                 0      0.00%    100.00% # Class of committed instruction
system.cpu.op_class_0::FloatMemWrite                0      0.00%    100.00% # Class of committed instruction
system.cpu.op_class_0::IprAccess                    0      0.00%    100.00% # Class of committed instruction
system.cpu.op_class_0::InstPrefetch                 0      0.00%    100.00% # Class of committed instruction
system.cpu.op_class_0::total                109139393                       # Class of committed instruction
system.cpu.tickCycles                       105494381                       # Number of cycles that the object actually ticked
system.cpu.workload.numSyscalls                    85                       # Number of system calls
system.membus.snoop_filter.hit_multi_requests            0                       # Number of requests hitting in the snoop filter with multiple (>1) holders of the requested data.
system.membus.snoop_filter.hit_multi_snoops            0                       # Number of snoops hitting in the snoop filter with multiple (>1) holders of the requested data.
system.membus.snoop_filter.hit_single_requests         2944                       # Number of requests hitting in the snoop filter with a single holder of the requested data.
system.membus.snoop_filter.hit_single_snoops            0                       # Number of snoops hitting in the snoop filter with a single holder of the requested data.
system.membus.snoop_filter.tot_requests         22486                       # Total number of requests made to the snoop filter.
system.membus.snoop_filter.tot_snoops               0                       # Total number of snoops made to the snoop filter.
system.tol2bus.snoop_filter.hit_multi_requests           36                       # Number of requests hitting in the snoop filter with multiple (>1) holders of the requested data.
system.tol2bus.snoop_filter.hit_multi_snoops            0                       # Number of snoops hitting in the snoop filter with multiple (>1) holders of the requested data.
system.tol2bus.snoop_filter.hit_single_requests        35752                       # Number of requests hitting in the snoop filter with a single holder of the requested data.
system.tol2bus.snoop_filter.hit_single_snoops          219                       # Number of snoops hitting in the snoop filter with a single holder of the requested data.
system.tol2bus.snoop_filter.tot_requests        72234                       # Total number of requests made to the snoop filter.
system.tol2bus.snoop_filter.tot_snoops            219                       # Total number of snoops made to the snoop filter.
system.clk_domain.clock                          1000                       # Clock period in ticks
system.cpu.branchPred.lookups                19661965                       # Number of BP lookups
system.cpu.branchPred.condPredicted          15821514                       # Number of conditional branches predicted
system.cpu.branchPred.condIncorrect             88865                       # Number of conditional branches incorrect
system.cpu.branchPred.BTBLookups              8076171                       # Number of BTB lookups
system.cpu.branchPred.BTBHits                 8062843                       # Number of BTB hits
system.cpu.branchPred.BTBHitPct             99.834971                       # BTB Hit Percentage
system.cpu.branchPred.RASUsed                 1050589                       # Number of times the RAS was used to get a target.
system.cpu.branchPred.RASIncorrect                467                       # Number of incorrect RAS predictions.
system.cpu.branchPred.indirectLookups          422689                       # Number of indirect predictor lookups.
system.cpu.branchPred.indirectHits             287881                       # Number of indirect target hits.
system.cpu.branchPred.indirectMisses           134808                       # Number of indirect misses.
system.cpu.branchPred.indirectMispredicted          993                       # Number of mispredicted indirect branches.
system.cpu.dcache.demand_hits::.cpu.data     34993555                       # number of demand (read+write) hits
system.cpu.dcache.demand_hits::total         34993555                       # number of demand (read+write) hits
system.cpu.dcache.overall_hits::.cpu.data     34996633                       # number of overall hits
system.cpu.dcache.overall_hits::total        34996633                       # number of overall hits
system.cpu.dcache.demand_misses::.cpu.data        46005                       # number of demand (read+write) misses
system.cpu.dcache.demand_misses::total          46005                       # number of demand (read+write) misses
system.cpu.dcache.overall_misses::.cpu.data        46056                       # number of overall misses
system.cpu.dcache.overall_misses::total         46056                       # number of overall misses
system.cpu.dcache.demand_miss_latency::.cpu.data   3321022000                       # number of demand (read+write) miss cycles
system.cpu.dcache.demand_miss_latency::total   3321022000                       # number of demand (read+write) miss cycles
system.cpu.dcache.overall_miss_latency::.cpu.data   3321022000                       # number of overall miss cycles
system.cpu.dcache.overall_miss_latency::total   3321022000                       # number of overall miss cycles
system.cpu.dcache.demand_accesses::.cpu.data     35039560                       # number of demand (read+write) accesses
system.cpu.dcache.demand_accesses::total     35039560                       # number of demand (read+write) accesses
system.cpu.dcache.overall_accesses::.cpu.data     35042689                       # number of overall (read+write) accesses
system.cpu.dcache.overall_accesses::total     35042689                       # number of overall (read+write) accesses
system.cpu.dcache.demand_miss_rate::.cpu.data     0.001313                       # miss rate for demand accesses
system.cpu.dcache.demand_miss_rate::total     0.001313                       # miss rate for demand accesses
system.cpu.dcache.overall_miss_rate::.cpu.data     0.001314                       # miss rate for overall accesses
system.cpu.dcache.overall_miss_rate::total     0.001314                       # miss rate for overall accesses
system.cpu.dcache.demand_avg_miss_latency::.cpu.data 72188.283882                       # average overall miss latency
system.cpu.dcache.demand_avg_miss_latency::total 72188.283882                       # average overall miss latency
system.cpu.dcache.overall_avg_miss_latency::.cpu.data 72108.346361                       # average overall miss latency
system.cpu.dcache.overall_avg_miss_latency::total 72108.346361                       # average overall miss latency
system.cpu.dcache.blocked_cycles::no_mshrs            0                       # number of cycles access was blocked
system.cpu.dcache.blocked_cycles::no_targets            0                       # number of cycles access was blocked
system.cpu.dcache.blocked::no_mshrs                 0                       # number of cycles access was blocked
system.cpu.dcache.blocked::no_targets               0                       # number of cycles access was blocked
system.cpu.dcache.avg_blocked_cycles::no_mshrs          nan                       # average number of cycles each access was blocked
system.cpu.dcache.avg_blocked_cycles::no_targets          nan                       # average number of cycles each access was blocked
system.cpu.dcache.writebacks::.writebacks        31866                       # number of writebacks
system.cpu.dcache.writebacks::total             31866                       # number of writebacks
system.cpu.dcache.demand_mshr_hits::.cpu.data        10635                       # number of demand (read+write) MSHR hits
system.cpu.dcache.demand_mshr_hits::total        10635                       # number of demand (read+write) MSHR hits
system.cpu.dcache.overall_mshr_hits::.cpu.data        10635                       # number of overall MSHR hits
system.cpu.dcache.overall_mshr_hits::total        10635                       # number of overall MSHR hits
system.cpu.dcache.demand_mshr_misses::.cpu.data        35370                       # number of demand (read+write) MSHR misses
system.cpu.dcache.demand_mshr_misses::total        35370                       # number of demand (read+write) MSHR misses
system.cpu.dcache.overall_mshr_misses::.cpu.data        35397                       # number of overall MSHR misses
system.cpu.dcache.overall_mshr_misses::total        35397                       # number of overall MSHR misses
system.cpu.dcache.demand_mshr_miss_latency::.cpu.data   2524338000                       # number of demand (read+write) MSHR miss cycles
system.cpu.dcache.demand_mshr_miss_latency::total   2524338000                       # number of demand (read+write) MSHR miss cycles
system.cpu.dcache.overall_mshr_miss_latency::.cpu.data   2525757000                       # number of overall MSHR miss cycles
system.cpu.dcache.overall_mshr_miss_latency::total   2525757000                       # number of overall MSHR miss cycles
system.cpu.dcache.demand_mshr_miss_rate::.cpu.data     0.001009                       # mshr miss rate for demand accesses
system.cpu.dcache.demand_mshr_miss_rate::total     0.001009                       # mshr miss rate for demand accesses
system.cpu.dcache.overall_mshr_miss_rate::.cpu.data     0.001010                       # mshr miss rate for overall accesses
system.cpu.dcache.overall_mshr_miss_rate::total     0.001010                       # mshr miss rate for overall accesses
system.cpu.dcache.demand_avg_mshr_miss_latency::.cpu.data 71369.465649                       # average overall mshr miss latency
system.cpu.dcache.demand_avg_mshr_miss_latency::total 71369.465649                       # average overall mshr miss latency
system.cpu.dcache.overall_avg_mshr_miss_latency::.cpu.data 71355.114840                       # average overall mshr miss latency
system.cpu.dcache.overall_avg_mshr_miss_latency::total 71355.114840                       # average overall mshr miss latency
system.cpu.dcache.replacements                  34885                       # number of replacements
system.cpu.dcache.ReadReq_hits::.cpu.data     20839902                       # number of ReadReq hits
system.cpu.dcache.ReadReq_hits::total        20839902                       # number of ReadReq hits
system.cpu.dcache.ReadReq_misses::.cpu.data        18326                       # number of ReadReq misses
system.cpu.dcache.ReadReq_misses::total         18326                       # number of ReadReq misses
system.cpu.dcache.ReadReq_miss_latency::.cpu.data    510565000                       # number of ReadReq miss cycles
system.cpu.dcache.ReadReq_miss_latency::total    510565000                       # number of ReadReq miss cycles
system.cpu.dcache.ReadReq_accesses::.cpu.data     20858228                       # number of ReadReq accesses(hits+misses)
system.cpu.dcache.ReadReq_accesses::total     20858228                       # number of ReadReq accesses(hits+misses)
system.cpu.dcache.ReadReq_miss_rate::.cpu.data     0.000879                       # miss rate for ReadReq accesses
system.cpu.dcache.ReadReq_miss_rate::total     0.000879                       # miss rate for ReadReq accesses
system.cpu.dcache.ReadReq_avg_miss_latency::.cpu.data 27860.144058                       # average ReadReq miss latency
system.cpu.dcache.ReadReq_avg_miss_latency::total 27860.144058                       # average ReadReq miss latency
system.cpu.dcache.ReadReq_mshr_hits::.cpu.data         2157                       # number of ReadReq MSHR hits
system.cpu.dcache.ReadReq_mshr_hits::total         2157                       # number of ReadReq MSHR hits
system.cpu.dcache.ReadReq_mshr_misses::.cpu.data        16169                       # number of ReadReq MSHR misses
system.cpu.dcache.ReadReq_mshr_misses::total        16169                       # number of ReadReq MSHR misses
system.cpu.dcache.ReadReq_mshr_miss_latency::.cpu.data    409647000                       # number of ReadReq MSHR miss cycles
system.cpu.dcache.ReadReq_mshr_miss_latency::total    409647000                       # number of ReadReq MSHR miss cycles
system.cpu.dcache.ReadReq_mshr_miss_rate::.cpu.data     0.000775                       # mshr miss rate for ReadReq accesses
system.cpu.dcache.ReadReq_mshr_miss_rate::total     0.000775                       # mshr miss rate for ReadReq accesses
system.cpu.dcache.ReadReq_avg_mshr_miss_latency::.cpu.data 25335.333045                       # average ReadReq mshr miss latency
system.cpu.dcache.ReadReq_avg_mshr_miss_latency::total 25335.333045                       # average ReadReq mshr miss latency
system.cpu.dcache.WriteReq_hits::.cpu.data     14153653                       # number of WriteReq hits
system.cpu.dcache.WriteReq_hits::total       14153653                       # number of WriteReq hits
system.cpu.dcache.WriteReq_misses::.cpu.data        27679                       # number of WriteReq misses
system.cpu.dcache.WriteReq_misses::total        27679                       # number of WriteReq misses
system.cpu.dcache.WriteReq_miss_latency::.cpu.data   2810457000                       # number of WriteReq miss cycles
system.cpu.dcache.WriteReq_miss_latency::total   2810457000                       # number of WriteReq miss cycles
system.cpu.dcache.WriteReq_accesses::.cpu.data     14181332                       # number of WriteReq accesses(hits+misses)
system.cpu.dcache.WriteReq_accesses::total     14181332                       # number of WriteReq accesses(hits+misses)
system.cpu.dcache.WriteReq_miss_rate::.cpu.data     0.001952                       # miss rate for WriteReq accesses
system.cpu.dcache.WriteReq_miss_rate::total     0.001952                       # miss rate for WriteReq accesses
system.cpu.dcache.WriteReq_avg_miss_latency::.cpu.data 101537.519419                       # average WriteReq miss latency
system.cpu.dcache.WriteReq_avg_miss_latency::total 101537.519419                       # average WriteReq miss latency
system.cpu.dcache.WriteReq_mshr_hits::.cpu.data         8478                       # number of WriteReq MSHR hits
system.cpu.dcache.WriteReq_mshr_hits::total         8478                       # number of WriteReq MSHR hits
system.cpu.dcache.WriteReq_mshr_misses::.cpu.data        19201                       # number of WriteReq MSHR misses
system.cpu.dcache.WriteReq_mshr_misses::total        19201                       # number of WriteReq MSHR misses
system.cpu.dcache.WriteReq_mshr_miss_latency::.cpu.data   2114691000                       # number of WriteReq MSHR miss cycles
system.cpu.dcache.WriteReq_mshr_miss_latency::total   2114691000                       # number of WriteReq MSHR miss cycles
system.cpu.dcache.WriteReq_mshr_miss_rate::.cpu.data     0.001354                       # mshr miss rate for WriteReq accesses
system.cpu.dcache.WriteReq_mshr_miss_rate::total     0.001354                       # mshr miss rate for WriteReq accesses
system.cpu.dcache.WriteReq_avg_mshr_miss_latency::.cpu.data 110134.420082                       # average WriteReq mshr miss latency
system.cpu.dcache.WriteReq_avg_mshr_miss_latency::total 110134.420082                       # average WriteReq mshr miss latency
system.cpu.dcache.SoftPFReq_hits::.cpu.data         3078                       # number of SoftPFReq hits
system.cpu.dcache.SoftPFReq_hits::total          3078                       # number of SoftPFReq hits
system.cpu.dcache.SoftPFReq_misses::.cpu.data           51                       # number of SoftPFReq misses
system.cpu.dcache.SoftPFReq_misses::total           51                       # number of SoftPFReq misses
system.cpu.dcache.SoftPFReq_accesses::.cpu.data         3129                       # number of SoftPFReq accesses(hits+misses)
system.cpu.dcache.SoftPFReq_accesses::total         3129                       # number of SoftPFReq accesses(hits+misses)
system.cpu.dcache.SoftPFReq_miss_rate::.cpu.data     0.016299                       # miss rate for SoftPFReq accesses
system.cpu.dcache.SoftPFReq_miss_rate::total     0.016299                       # miss rate for SoftPFReq accesses
system.cpu.dcache.SoftPFReq_mshr_misses::.cpu.data           27                       # number of SoftPFReq MSHR misses
system.cpu.dcache.SoftPFReq_mshr_misses::total           27                       # number of SoftPFReq MSHR misses
system.cpu.dcache.SoftPFReq_mshr_miss_latency::.cpu.data      1419000                       # number of SoftPFReq MSHR miss cycles
system.cpu.dcache.SoftPFReq_mshr_miss_latency::total      1419000                       # number of SoftPFReq MSHR miss cycles
system.cpu.dcache.SoftPFReq_mshr_miss_rate::.cpu.data     0.008629                       # mshr miss rate for SoftPFReq accesses
system.cpu.dcache.SoftPFReq_mshr_miss_rate::total     0.008629                       # mshr miss rate for SoftPFReq accesses
system.cpu.dcache.SoftPFReq_avg_mshr_miss_latency::.cpu.data 52555.555556                       # average SoftPFReq mshr miss latency
system.cpu.dcache.SoftPFReq_avg_mshr_miss_latency::total 52555.555556                       # average SoftPFReq mshr miss latency
system.cpu.dcache.LoadLockedReq_hits::.cpu.data        85610                       # number of LoadLockedReq hits
system.cpu.dcache.LoadLockedReq_hits::total        85610                       # number of LoadLockedReq hits
system.cpu.dcache.LoadLockedReq_accesses::.cpu.data        85610                       # number of LoadLockedReq accesses(hits+misses)
system.cpu.dcache.LoadLockedReq_accesses::total        85610                       # number of LoadLockedReq accesses(hits+misses)
system.cpu.dcache.StoreCondReq_hits::.cpu.data        85610                       # number of StoreCondReq hits
system.cpu.dcache.StoreCondReq_hits::total        85610                       # number of StoreCondReq hits
system.cpu.dcache.StoreCondReq_accesses::.cpu.data        85610                       # number of StoreCondReq accesses(hits+misses)
system.cpu.dcache.StoreCondReq_accesses::total        85610                       # number of StoreCondReq accesses(hits+misses)
system.cpu.dcache.power_state.pwrStateResidencyTicks::UNDEFINED 107306188000                       # Cumulative time (in ticks) in various power states
system.cpu.dcache.tags.tagsinuse           510.600357                       # Cycle average of tags in use
system.cpu.dcache.tags.total_refs            35203250                       # Total number of references to valid blocks.
system.cpu.dcache.tags.sampled_refs             35397                       # Sample count of references to valid blocks.
system.cpu.dcache.tags.avg_refs            994.526372                       # Average number of references to valid blocks.
system.cpu.dcache.tags.warmup_cycle            233000                       # Cycle when the warmup percentage was hit.
system.cpu.dcache.tags.occ_blocks::.cpu.data   510.600357                       # Average occupied blocks per requestor
system.cpu.dcache.tags.occ_percent::.cpu.data     0.997266                       # Average percentage of cache occupancy
system.cpu.dcache.tags.occ_percent::total     0.997266                       # Average percentage of cache occupancy
system.cpu.dcache.tags.occ_task_id_blocks::1024          512                       # Occupied blocks per task id
system.cpu.dcache.tags.age_task_id_blocks_1024::0            5                       # Occupied blocks per task id
system.cpu.dcache.tags.age_task_id_blocks_1024::1           18                       # Occupied blocks per task id
system.cpu.dcache.tags.age_task_id_blocks_1024::2          148                       # Occupied blocks per task id
system.cpu.dcache.tags.age_task_id_blocks_1024::3          317                       # Occupied blocks per task id
system.cpu.dcache.tags.age_task_id_blocks_1024::4           24                       # Occupied blocks per task id
system.cpu.dcache.tags.occ_task_id_percent::1024            1                       # Percentage of cache occupancy per task id
system.cpu.dcache.tags.tag_accesses          70463215                       # Number of tag accesses
system.cpu.dcache.tags.data_accesses         70463215                       # Number of data accesses
system.cpu.dcache.tags.power_state.pwrStateResidencyTicks::UNDEFINED 107306188000                       # Cumulative time (in ticks) in various power states
system.cpu.dtb.instHits                             0                       # ITB inst hits
system.cpu.dtb.instMisses                           0                       # ITB inst misses
system.cpu.dtb.readHits                             0                       # DTB read hits
system.cpu.dtb.readMisses                           0                       # DTB read misses
system.cpu.dtb.writeHits                            0                       # DTB write hits
system.cpu.dtb.writeMisses                          0                       # DTB write misses
system.cpu.dtb.inserts                              0                       # Number of times an entry is inserted into the TLB
system.cpu.dtb.flushTlb                             0                       # Number of times complete TLB was flushed
system.cpu.dtb.flushTlbMva                          0                       # Number of times TLB was flushed by MVA
system.cpu.dtb.flushTlbMvaAsid                      0                       # Number of times TLB was flushed by MVA & ASID
system.cpu.dtb.flushTlbAsid                         0                       # Number of times TLB was flushed by ASID
system.cpu.dtb.flushedEntries                       0                       # Number of entries that have been flushed from TLB
system.cpu.dtb.alignFaults                          0                       # Number of TLB faults due to alignment restrictions
system.cpu.dtb.prefetchFaults                       0                       # Number of TLB faults due to prefetch
system.cpu.dtb.domainFaults                         0                       # Number of TLB faults due to domain restrictions
system.cpu.dtb.permsFaults                          0                       # Number of TLB faults due to permissions restrictions
system.cpu.dtb.readAccesses                         0                       # DTB read accesses
system.cpu.dtb.writeAccesses                        0                       # DTB write accesses
system.cpu.dtb.instAccesses                         0                       # ITB inst accesses
system.cpu.dtb.hits                                 0                       # Total TLB (inst and data) hits
system.cpu.dtb.misses                               0                       # Total TLB (inst and data) misses
system.cpu.dtb.accesses                             0                       # Total TLB (inst and data) accesses
system.cpu.dtb.stage2_mmu.stage2_tlb.instHits            0                       # ITB inst hits
system.cpu.dtb.stage2_mmu.stage2_tlb.instMisses            0                       # ITB inst misses
system.cpu.dtb.stage2_mmu.stage2_tlb.readHits            0                       # DTB read hits
system.cpu.dtb.stage2_mmu.stage2_tlb.readMisses            0                       # DTB read misses
system.cpu.dtb.stage2_mmu.stage2_tlb.writeHits            0                       # DTB write hits
system.cpu.dtb.stage2_mmu.stage2_tlb.writeMisses            0                       # DTB write misses
system.cpu.dtb.stage2_mmu.stage2_tlb.inserts            0                       # Number of times an entry is inserted into the TLB
system.cpu.dtb.stage2_mmu.stage2_tlb.flushTlb            0                       # Number of times complete TLB was flushed
system.cpu.dtb.stage2_mmu.stage2_tlb.flushTlbMva            0                       # Number of times TLB was flushed by MVA
system.cpu.dtb.stage2_mmu.stage2_tlb.flushTlbMvaAsid            0                       # Number of times TLB was flushed by MVA & ASID
system.cpu.dtb.stage2_mmu.stage2_tlb.flushTlbAsid            0                       # Number of times TLB was flushed by ASID
system.cpu.dtb.stage2_mmu.stage2_tlb.flushedEntries            0                       # Number of entries that have been flushed from TLB
system.cpu.dtb.stage2_mmu.stage2_tlb.alignFaults            0                       # Number of TLB faults due to alignment restrictions
system.cpu.dtb.stage2_mmu.stage2_tlb.prefetchFaults            0                       # Number of TLB faults due to prefetch
system.cpu.dtb.stage2_mmu.stage2_tlb.domainFaults            0                       # Number of TLB faults due to domain restrictions
system.cpu.dtb.stage2_mmu.stage2_tlb.permsFaults            0                       # Number of TLB faults due to permissions restrictions
system.cpu.dtb.stage2_mmu.stage2_tlb.readAccesses            0                       # DTB read accesses
system.cpu.dtb.stage2_mmu.stage2_tlb.writeAccesses            0                       # DTB write accesses
system.cpu.dtb.stage2_mmu.stage2_tlb.instAccesses            0                       # ITB inst accesses
system.cpu.dtb.stage2_mmu.stage2_tlb.hits            0                       # Total TLB (inst and data) hits
system.cpu.dtb.stage2_mmu.stage2_tlb.misses            0                       # Total TLB (inst and data) misses
system.cpu.dtb.stage2_mmu.stage2_tlb.accesses            0                       # Total TLB (inst and data) accesses
system.cpu.dtb.stage2_mmu.stage2_tlb.walker.walks            0                       # Table walker walks requested
system.cpu.dtb.stage2_mmu.stage2_tlb.walker.requestOrigin_Requested::Data            0                       # Table walker requests started/completed, data/inst
system.cpu.dtb.stage2_mmu.stage2_tlb.walker.requestOrigin_Requested::Inst            0                       # Table walker requests started/completed, data/inst
system.cpu.dtb.stage2_mmu.stage2_tlb.walker.requestOrigin_Requested::total            0                       # Table walker requests started/completed, data/inst
system.cpu.dtb.stage2_mmu.stage2_tlb.walker.requestOrigin_Completed::Data            0                       # Table walker requests started/completed, data/inst
system.cpu.dtb.stage2_mmu.stage2_tlb.walker.requestOrigin_Completed::Inst            0                       # Table walker requests started/completed, data/inst
system.cpu.dtb.stage2_mmu.stage2_tlb.walker.requestOrigin_Completed::total            0                       # Table walker requests started/completed, data/inst
system.cpu.dtb.stage2_mmu.stage2_tlb.walker.requestOrigin::total            0                       # Table walker requests started/completed, data/inst
system.cpu.dtb.stage2_mmu.stage2_tlb.walker.power_state.pwrStateResidencyTicks::UNDEFINED 107306188000                       # Cumulative time (in ticks) in various power states
system.cpu.dtb.walker.walks                         0                       # Table walker walks requested
system.cpu.dtb.walker.requestOrigin_Requested::Data            0                       # Table walker requests started/completed, data/inst
system.cpu.dtb.walker.requestOrigin_Requested::Inst            0                       # Table walker requests started/completed, data/inst
system.cpu.dtb.walker.requestOrigin_Requested::total            0                       # Table walker requests started/completed, data/inst
system.cpu.dtb.walker.requestOrigin_Completed::Data            0                       # Table walker requests started/completed, data/inst
system.cpu.dtb.walker.requestOrigin_Completed::Inst            0                       # Table walker requests started/completed, data/inst
system.cpu.dtb.walker.requestOrigin_Completed::total            0                       # Table walker requests started/completed, data/inst
system.cpu.dtb.walker.requestOrigin::total            0                       # Table walker requests started/completed, data/inst
system.cpu.dtb.walker.power_state.pwrStateResidencyTicks::UNDEFINED 107306188000                       # Cumulative time (in ticks) in various power states
system.cpu.fetch2.intInstructions            49127764                       # Number of integer instructions successfully decoded
system.cpu.fetch2.fpInstructions                    0                       # Number of floating point instructions successfully decoded
system.cpu.fetch2.vecInstructions                   0                       # Number of SIMD instructions successfully decoded
system.cpu.fetch2.loadInstructions           17537270                       # Number of memory load instructions successfully decoded
system.cpu.fetch2.storeInstructions          10086702                       # Number of memory store instructions successfully decoded
system.cpu.fetch2.amoInstructions                   0                       # Number of memory atomic instructions successfully decoded
system.cpu.icache.demand_hits::.cpu.inst     25654987                       # number of demand (read+write) hits
system.cpu.icache.demand_hits::total         25654987                       # number of demand (read+write) hits
system.cpu.icache.overall_hits::.cpu.inst     25654987                       # number of overall hits
system.cpu.icache.overall_hits::total        25654987                       # number of overall hits
system.cpu.icache.demand_misses::.cpu.inst         1088                       # number of demand (read+write) misses
system.cpu.icache.demand_misses::total           1088                       # number of demand (read+write) misses
system.cpu.icache.overall_misses::.cpu.inst         1088                       # number of overall misses
system.cpu.icache.overall_misses::total          1088                       # number of overall misses
system.cpu.icache.demand_miss_latency::.cpu.inst     55488000                       # number of demand (read+write) miss cycles
system.cpu.icache.demand_miss_latency::total     55488000                       # number of demand (read+write) miss cycles
system.cpu.icache.overall_miss_latency::.cpu.inst     55488000                       # number of overall miss cycles
system.cpu.icache.overall_miss_latency::total     55488000                       # number of overall miss cycles
system.cpu.icache.demand_accesses::.cpu.inst     25656075                       # number of demand (read+write) accesses
system.cpu.icache.demand_accesses::total     25656075                       # number of demand (read+write) accesses
system.cpu.icache.overall_accesses::.cpu.inst     25656075                       # number of overall (read+write) accesses
system.cpu.icache.overall_accesses::total     25656075                       # number of overall (read+write) accesses
system.cpu.icache.demand_miss_rate::.cpu.inst     0.000042                       # miss rate for demand accesses
system.cpu.icache.demand_miss_rate::total     0.000042                       # miss rate for demand accesses
system.cpu.icache.overall_miss_rate::.cpu.inst     0.000042                       # miss rate for overall accesses
system.cpu.icache.overall_miss_rate::total     0.000042                       # miss rate for overall accesses
system.cpu.icache.demand_avg_miss_latency::.cpu.inst        51000                       # average overall miss latency
system.cpu.icache.demand_avg_miss_latency::total        51000                       # average overall miss latency
system.cpu.icache.overall_avg_miss_latency::.cpu.inst        51000                       # average overall miss latency
system.cpu.icache.overall_avg_miss_latency::total        51000                       # average overall miss latency
system.cpu.icache.blocked_cycles::no_mshrs            0                       # number of cycles access was blocked
system.cpu.icache.blocked_cycles::no_targets            0                       # number of cycles access was blocked
system.cpu.icache.blocked::no_mshrs                 0                       # number of cycles access was blocked
system.cpu.icache.blocked::no_targets               0                       # number of cycles access was blocked
system.cpu.icache.avg_blocked_cycles::no_mshrs          nan                       # average number of cycles each access was blocked
system.cpu.icache.avg_blocked_cycles::no_targets          nan                       # average number of cycles each access was blocked
system.cpu.icache.writebacks::.writebacks          864                       # number of writebacks
system.cpu.icache.writebacks::total               864                       # number of writebacks
system.cpu.icache.demand_mshr_misses::.cpu.inst         1088                       # number of demand (read+write) MSHR misses
system.cpu.icache.demand_mshr_misses::total         1088                       # number of demand (read+write) MSHR misses
system.cpu.icache.overall_mshr_misses::.cpu.inst         1088                       # number of overall MSHR misses
system.cpu.icache.overall_mshr_misses::total         1088                       # number of overall MSHR misses
system.cpu.icache.demand_mshr_miss_latency::.cpu.inst     53312000                       # number of demand (read+write) MSHR miss cycles
system.cpu.icache.demand_mshr_miss_latency::total     53312000                       # number of demand (read+write) MSHR miss cycles
system.cpu.icache.overall_mshr_miss_latency::.cpu.inst     53312000                       # number of overall MSHR miss cycles
system.cpu.icache.overall_mshr_miss_latency::total     53312000                       # number of overall MSHR miss cycles
system.cpu.icache.demand_mshr_miss_rate::.cpu.inst     0.000042                       # mshr miss rate for demand accesses
system.cpu.icache.demand_mshr_miss_rate::total     0.000042                       # mshr miss rate for demand accesses
system.cpu.icache.overall_mshr_miss_rate::.cpu.inst     0.000042                       # mshr miss rate for overall accesses
system.cpu.icache.overall_mshr_miss_rate::total     0.000042                       # mshr miss rate for overall accesses
system.cpu.icache.demand_avg_mshr_miss_latency::.cpu.inst        49000                       # average overall mshr miss latency
system.cpu.icache.demand_avg_mshr_miss_latency::total        49000                       # average overall mshr miss latency
system.cpu.icache.overall_avg_mshr_miss_latency::.cpu.inst        49000                       # average overall mshr miss latency
system.cpu.icache.overall_avg_mshr_miss_latency::total        49000                       # average overall mshr miss latency
system.cpu.icache.replacements                    864                       # number of replacements
system.cpu.icache.ReadReq_hits::.cpu.inst     25654987                       # number of ReadReq hits
system.cpu.icache.ReadReq_hits::total        25654987                       # number of ReadReq hits
system.cpu.icache.ReadReq_misses::.cpu.inst         1088                       # number of ReadReq misses
system.cpu.icache.ReadReq_misses::total          1088                       # number of ReadReq misses
system.cpu.icache.ReadReq_miss_latency::.cpu.inst     55488000                       # number of ReadReq miss cycles
system.cpu.icache.ReadReq_miss_latency::total     55488000                       # number of ReadReq miss cycles
system.cpu.icache.ReadReq_accesses::.cpu.inst     25656075                       # number of ReadReq accesses(hits+misses)
system.cpu.icache.ReadReq_accesses::total     25656075                       # number of ReadReq accesses(hits+misses)
system.cpu.icache.ReadReq_miss_rate::.cpu.inst     0.000042                       # miss rate for ReadReq accesses
system.cpu.icache.ReadReq_miss_rate::total     0.000042                       # miss rate for ReadReq accesses
system.cpu.icache.ReadReq_avg_miss_latency::.cpu.inst        51000                       # average ReadReq miss latency
system.cpu.icache.ReadReq_avg_miss_latency::total        51000                       # average ReadReq miss latency
system.cpu.icache.ReadReq_mshr_misses::.cpu.inst         1088                       # number of ReadReq MSHR misses
system.cpu.icache.ReadReq_mshr_misses::total         1088                       # number of ReadReq MSHR misses
system.cpu.icache.ReadReq_mshr_miss_latency::.cpu.inst     53312000                       # number of ReadReq MSHR miss cycles
system.cpu.icache.ReadReq_mshr_miss_latency::total     53312000                       # number of ReadReq MSHR miss cycles
system.cpu.icache.ReadReq_mshr_miss_rate::.cpu.inst     0.000042                       # mshr miss rate for ReadReq accesses
system.cpu.icache.ReadReq_mshr_miss_rate::total     0.000042                       # mshr miss rate for ReadReq accesses
system.cpu.icache.ReadReq_avg_mshr_miss_latency::.cpu.inst        49000                       # average ReadReq mshr miss latency
system.cpu.icache.ReadReq_avg_mshr_miss_latency::total        49000                       # average ReadReq mshr miss latency
system.cpu.icache.power_state.pwrStateResidencyTicks::UNDEFINED 107306188000                       # Cumulative time (in ticks) in various power states
system.cpu.icache.tags.tagsinuse           223.823641                       # Cycle average of tags in use
system.cpu.icache.tags.total_refs            25656075                       # Total number of references to valid blocks.
system.cpu.icache.tags.sampled_refs              1088                       # Sample count of references to valid blocks.
system.cpu.icache.tags.avg_refs          23580.951287                       # Average number of references to valid blocks.
system.cpu.icache.tags.warmup_cycle            113000                       # Cycle when the warmup percentage was hit.
system.cpu.icache.tags.occ_blocks::.cpu.inst   223.823641                       # Average occupied blocks per requestor
system.cpu.icache.tags.occ_percent::.cpu.inst     0.874311                       # Average percentage of cache occupancy
system.cpu.icache.tags.occ_percent::total     0.874311                       # Average percentage of cache occupancy
system.cpu.icache.tags.occ_task_id_blocks::1024          224                       # Occupied blocks per task id
system.cpu.icache.tags.age_task_id_blocks_1024::1            5                       # Occupied blocks per task id
system.cpu.icache.tags.age_task_id_blocks_1024::3            1                       # Occupied blocks per task id
system.cpu.icache.tags.age_task_id_blocks_1024::4          218                       # Occupied blocks per task id
system.cpu.icache.tags.occ_task_id_percent::1024     0.875000                       # Percentage of cache occupancy per task id
system.cpu.icache.tags.tag_accesses          51313238                       # Number of tag accesses
system.cpu.icache.tags.data_accesses         51313238                       # Number of data accesses
system.cpu.icache.tags.power_state.pwrStateResidencyTicks::UNDEFINED 107306188000                       # Cumulative time (in ticks) in various power states
system.cpu.itb.instHits                             0                       # ITB inst hits
system.cpu.itb.instMisses                           0                       # ITB inst misses
system.cpu.itb.readHits                             0                       # DTB read hits
system.cpu.itb.readMisses                           0                       # DTB read misses
system.cpu.itb.writeHits                            0                       # DTB write hits
system.cpu.itb.writeMisses                          0                       # DTB write misses
system.cpu.itb.inserts                              0                       # Number of times an entry is inserted into the TLB
system.cpu.itb.flushTlb                             0                       # Number of times complete TLB was flushed
system.cpu.itb.flushTlbMva                          0                       # Number of times TLB was flushed by MVA
system.cpu.itb.flushTlbMvaAsid                      0                       # Number of times TLB was flushed by MVA & ASID
system.cpu.itb.flushTlbAsid                         0                       # Number of times TLB was flushed by ASID
system.cpu.itb.flushedEntries                       0                       # Number of entries that have been flushed from TLB
system.cpu.itb.alignFaults                          0                       # Number of TLB faults due to alignment restrictions
system.cpu.itb.prefetchFaults                       0                       # Number of TLB faults due to prefetch
system.cpu.itb.domainFaults                         0                       # Number of TLB faults due to domain restrictions
system.cpu.itb.permsFaults                          0                       # Number of TLB faults due to permissions restrictions
system.cpu.itb.readAccesses                         0                       # DTB read accesses
system.cpu.itb.writeAccesses                        0                       # DTB write accesses
system.cpu.itb.instAccesses                         0                       # ITB inst accesses
system.cpu.itb.hits                                 0                       # Total TLB (inst and data) hits
system.cpu.itb.misses                               0                       # Total TLB (inst and data) misses
system.cpu.itb.accesses                             0                       # Total TLB (inst and data) accesses
system.cpu.itb.stage2_mmu.stage2_tlb.instHits            0                       # ITB inst hits
system.cpu.itb.stage2_mmu.stage2_tlb.instMisses            0                       # ITB inst misses
system.cpu.itb.stage2_mmu.stage2_tlb.readHits            0                       # DTB read hits
system.cpu.itb.stage2_mmu.stage2_tlb.readMisses            0                       # DTB read misses
system.cpu.itb.stage2_mmu.stage2_tlb.writeHits            0                       # DTB write hits
system.cpu.itb.stage2_mmu.stage2_tlb.writeMisses            0                       # DTB write misses
system.cpu.itb.stage2_mmu.stage2_tlb.inserts            0                       # Number of times an entry is inserted into the TLB
system.cpu.itb.stage2_mmu.stage2_tlb.flushTlb            0                       # Number of times complete TLB was flushed
system.cpu.itb.stage2_mmu.stage2_tlb.flushTlbMva            0                       # Number of times TLB was flushed by MVA
system.cpu.itb.stage2_mmu.stage2_tlb.flushTlbMvaAsid            0                       # Number of times TLB was flushed by MVA & ASID
system.cpu.itb.stage2_mmu.stage2_tlb.flushTlbAsid            0                       # Number of times TLB was flushed by ASID
system.cpu.itb.stage2_mmu.stage2_tlb.flushedEntries            0                       # Number of entries that have been flushed from TLB
system.cpu.itb.stage2_mmu.stage2_tlb.alignFaults            0                       # Number of TLB faults due to alignment restrictions
system.cpu.itb.stage2_mmu.stage2_tlb.prefetchFaults            0                       # Number of TLB faults due to prefetch
system.cpu.itb.stage2_mmu.stage2_tlb.domainFaults            0                       # Number of TLB faults due to domain restrictions
system.cpu.itb.stage2_mmu.stage2_tlb.permsFaults            0                       # Number of TLB faults due to permissions restrictions
system.cpu.itb.stage2_mmu.stage2_tlb.readAccesses            0                       # DTB read accesses
system.cpu.itb.stage2_mmu.stage2_tlb.writeAccesses            0                       # DTB write accesses
system.cpu.itb.stage2_mmu.stage2_tlb.instAccesses            0                       # ITB inst accesses
system.cpu.itb.stage2_mmu.stage2_tlb.hits            0                       # Total TLB (inst and data) hits
system.cpu.itb.stage2_mmu.stage2_tlb.misses            0                       # Total TLB (inst and data) misses
system.cpu.itb.stage2_mmu.stage2_tlb.accesses            0                       # Total TLB (inst and data) accesses
system.cpu.itb.stage2_mmu.stage2_tlb.walker.walks            0                       # Table walker walks requested
system.cpu.itb.stage2_mmu.stage2_tlb.walker.requestOrigin_Requested::Data            0                       # Table walker requests started/completed, data/inst
system.cpu.itb.stage2_mmu.stage2_tlb.walker.requestOrigin_Requested::Inst            0                       # Table walker requests started/completed, data/inst
system.cpu.itb.stage2_mmu.stage2_tlb.walker.requestOrigin_Requested::total            0                       # Table walker requests started/completed, data/inst
system.cpu.itb.stage2_mmu.stage2_tlb.walker.requestOrigin_Completed::Data            0                       # Table walker requests started/completed, data/inst
system.cpu.itb.stage2_mmu.stage2_tlb.walker.requestOrigin_Completed::Inst            0                       # Table walker requests started/completed, data/inst
system.cpu.itb.stage2_mmu.stage2_tlb.walker.requestOrigin_Completed::total            0                       # Table walker requests started/completed, data/inst
system.cpu.itb.stage2_mmu.stage2_tlb.walker.requestOrigin::total            0                       # Table walker requests started/completed, data/inst
system.cpu.itb.stage2_mmu.stage2_tlb.walker.power_state.pwrStateResidencyTicks::UNDEFINED 107306188000                       # Cumulative time (in ticks) in various power states
system.cpu.itb.walker.walks                         0                       # Table walker walks requested
system.cpu.itb.walker.requestOrigin_Requested::Data            0                       # Table walker requests started/completed, data/inst
system.cpu.itb.walker.requestOrigin_Requested::Inst            0                       # Table walker requests started/completed, data/inst
system.cpu.itb.walker.requestOrigin_Requested::total            0                       # Table walker requests started/completed, data/inst
system.cpu.itb.walker.requestOrigin_Completed::Data            0                       # Table walker requests started/completed, data/inst
system.cpu.itb.walker.requestOrigin_Completed::Inst            0                       # Table walker requests started/completed, data/inst
system.cpu.itb.walker.requestOrigin_Completed::total            0                       # Table walker requests started/completed, data/inst
system.cpu.itb.walker.requestOrigin::total            0                       # Table walker requests started/completed, data/inst
system.cpu.itb.walker.power_state.pwrStateResidencyTicks::UNDEFINED 107306188000                       # Cumulative time (in ticks) in various power states
system.cpu.power_state.pwrStateResidencyTicks::ON 107306188000                       # Cumulative time (in ticks) in various power states
system.cpu.thread_0.numInsts                100000001                       # Number of Instructions committed
system.cpu.thread_0.numOps                  109139393                       # Number of Ops committed
system.cpu.thread_0.numMemRefs                      0                       # Number of Memory References
system.cpu_clk_domain.clock                      1000                       # Clock period in ticks
system.cpu_voltage_domain.voltage                   1                       # Voltage in Volts
system.l2.demand_hits::.cpu.inst                  755                       # number of demand (read+write) hits
system.l2.demand_hits::.cpu.data                16185                       # number of demand (read+write) hits
system.l2.demand_hits::total                    16940                       # number of demand (read+write) hits
system.l2.overall_hits::.cpu.inst                 755                       # number of overall hits
system.l2.overall_hits::.cpu.data               16185                       # number of overall hits
system.l2.overall_hits::total                   16940                       # number of overall hits
system.l2.demand_misses::.cpu.inst                333                       # number of demand (read+write) misses
system.l2.demand_misses::.cpu.data              19212                       # number of demand (read+write) misses
system.l2.demand_misses::total                  19545                       # number of demand (read+write) misses
system.l2.overall_misses::.cpu.inst               333                       # number of overall misses
system.l2.overall_misses::.cpu.data             19212                       # number of overall misses
system.l2.overall_misses::total                 19545                       # number of overall misses
system.l2.demand_miss_latency::.cpu.inst     33891000                       # number of demand (read+write) miss cycles
system.l2.demand_miss_latency::.cpu.data   2079621000                       # number of demand (read+write) miss cycles
system.l2.demand_miss_latency::total       2113512000                       # number of demand (read+write) miss cycles
system.l2.overall_miss_latency::.cpu.inst     33891000                       # number of overall miss cycles
system.l2.overall_miss_latency::.cpu.data   2079621000                       # number of overall miss cycles
system.l2.overall_miss_latency::total      2113512000                       # number of overall miss cycles
system.l2.demand_accesses::.cpu.inst             1088                       # number of demand (read+write) accesses
system.l2.demand_accesses::.cpu.data            35397                       # number of demand (read+write) accesses
system.l2.demand_accesses::total                36485                       # number of demand (read+write) accesses
system.l2.overall_accesses::.cpu.inst            1088                       # number of overall (read+write) accesses
system.l2.overall_accesses::.cpu.data           35397                       # number of overall (read+write) accesses
system.l2.overall_accesses::total               36485                       # number of overall (read+write) accesses
system.l2.demand_miss_rate::.cpu.inst        0.306066                       # miss rate for demand accesses
system.l2.demand_miss_rate::.cpu.data        0.542758                       # miss rate for demand accesses
system.l2.demand_miss_rate::total            0.535700                       # miss rate for demand accesses
system.l2.overall_miss_rate::.cpu.inst       0.306066                       # miss rate for overall accesses
system.l2.overall_miss_rate::.cpu.data       0.542758                       # miss rate for overall accesses
system.l2.overall_miss_rate::total           0.535700                       # miss rate for overall accesses
system.l2.demand_avg_miss_latency::.cpu.inst 101774.774775                       # average overall miss latency
system.l2.demand_avg_miss_latency::.cpu.data 108245.940037                       # average overall miss latency
system.l2.demand_avg_miss_latency::total 108135.686876                       # average overall miss latency
system.l2.overall_avg_miss_latency::.cpu.inst 101774.774775                       # average overall miss latency
system.l2.overall_avg_miss_latency::.cpu.data 108245.940037                       # average overall miss latency
system.l2.overall_avg_miss_latency::total 108135.686876                       # average overall miss latency
system.l2.blocked_cycles::no_mshrs                  0                       # number of cycles access was blocked
system.l2.blocked_cycles::no_targets                0                       # number of cycles access was blocked
system.l2.blocked::no_mshrs                         0                       # number of cycles access was blocked
system.l2.blocked::no_targets                       0                       # number of cycles access was blocked
system.l2.avg_blocked_cycles::no_mshrs            nan                       # average number of cycles each access was blocked
system.l2.avg_blocked_cycles::no_targets          nan                       # average number of cycles each access was blocked
system.l2.writebacks::.writebacks                2799                       # number of writebacks
system.l2.writebacks::total                      2799                       # number of writebacks
system.l2.demand_mshr_hits::.cpu.data               3                       # number of demand (read+write) MSHR hits
system.l2.demand_mshr_hits::total                   3                       # number of demand (read+write) MSHR hits
system.l2.overall_mshr_hits::.cpu.data              3                       # number of overall MSHR hits
system.l2.overall_mshr_hits::total                  3                       # number of overall MSHR hits
system.l2.demand_mshr_misses::.cpu.inst           333                       # number of demand (read+write) MSHR misses
system.l2.demand_mshr_misses::.cpu.data         19209                       # number of demand (read+write) MSHR misses
system.l2.demand_mshr_misses::total             19542                       # number of demand (read+write) MSHR misses
system.l2.overall_mshr_misses::.cpu.inst          333                       # number of overall MSHR misses
system.l2.overall_mshr_misses::.cpu.data        19209                       # number of overall MSHR misses
system.l2.overall_mshr_misses::total            19542                       # number of overall MSHR misses
system.l2.demand_mshr_miss_latency::.cpu.inst     27231000                       # number of demand (read+write) MSHR miss cycles
system.l2.demand_mshr_miss_latency::.cpu.data   1694968000                       # number of demand (read+write) MSHR miss cycles
system.l2.demand_mshr_miss_latency::total   1722199000                       # number of demand (read+write) MSHR miss cycles
system.l2.overall_mshr_miss_latency::.cpu.inst     27231000                       # number of overall MSHR miss cycles
system.l2.overall_mshr_miss_latency::.cpu.data   1694968000                       # number of overall MSHR miss cycles
system.l2.overall_mshr_miss_latency::total   1722199000                       # number of overall MSHR miss cycles
system.l2.demand_mshr_miss_rate::.cpu.inst     0.306066                       # mshr miss rate for demand accesses
system.l2.demand_mshr_miss_rate::.cpu.data     0.542673                       # mshr miss rate for demand accesses
system.l2.demand_mshr_miss_rate::total       0.535617                       # mshr miss rate for demand accesses
system.l2.overall_mshr_miss_rate::.cpu.inst     0.306066                       # mshr miss rate for overall accesses
system.l2.overall_mshr_miss_rate::.cpu.data     0.542673                       # mshr miss rate for overall accesses
system.l2.overall_mshr_miss_rate::total      0.535617                       # mshr miss rate for overall accesses
system.l2.demand_avg_mshr_miss_latency::.cpu.inst 81774.774775                       # average overall mshr miss latency
system.l2.demand_avg_mshr_miss_latency::.cpu.data 88238.221667                       # average overall mshr miss latency
system.l2.demand_avg_mshr_miss_latency::total 88128.083103                       # average overall mshr miss latency
system.l2.overall_avg_mshr_miss_latency::.cpu.inst 81774.774775                       # average overall mshr miss latency
system.l2.overall_avg_mshr_miss_latency::.cpu.data 88238.221667                       # average overall mshr miss latency
system.l2.overall_avg_mshr_miss_latency::total 88128.083103                       # average overall mshr miss latency
system.l2.replacements                           3161                       # number of replacements
system.l2.WritebackDirty_hits::.writebacks        31866                       # number of WritebackDirty hits
system.l2.WritebackDirty_hits::total            31866                       # number of WritebackDirty hits
system.l2.WritebackDirty_accesses::.writebacks        31866                       # number of WritebackDirty accesses(hits+misses)
system.l2.WritebackDirty_accesses::total        31866                       # number of WritebackDirty accesses(hits+misses)
system.l2.WritebackClean_hits::.writebacks          857                       # number of WritebackClean hits
system.l2.WritebackClean_hits::total              857                       # number of WritebackClean hits
system.l2.WritebackClean_accesses::.writebacks          857                       # number of WritebackClean accesses(hits+misses)
system.l2.WritebackClean_accesses::total          857                       # number of WritebackClean accesses(hits+misses)
system.l2.CleanEvict_mshr_misses::.writebacks            2                       # number of CleanEvict MSHR misses
system.l2.CleanEvict_mshr_misses::total             2                       # number of CleanEvict MSHR misses
system.l2.CleanEvict_mshr_miss_rate::.writebacks          inf                       # mshr miss rate for CleanEvict accesses
system.l2.CleanEvict_mshr_miss_rate::total          inf                       # mshr miss rate for CleanEvict accesses
system.l2.ReadExReq_hits::.cpu.data               225                       # number of ReadExReq hits
system.l2.ReadExReq_hits::total                   225                       # number of ReadExReq hits
system.l2.ReadExReq_misses::.cpu.data           18976                       # number of ReadExReq misses
system.l2.ReadExReq_misses::total               18976                       # number of ReadExReq misses
system.l2.ReadExReq_miss_latency::.cpu.data   2052361000                       # number of ReadExReq miss cycles
system.l2.ReadExReq_miss_latency::total    2052361000                       # number of ReadExReq miss cycles
system.l2.ReadExReq_accesses::.cpu.data         19201                       # number of ReadExReq accesses(hits+misses)
system.l2.ReadExReq_accesses::total             19201                       # number of ReadExReq accesses(hits+misses)
system.l2.ReadExReq_miss_rate::.cpu.data     0.988282                       # miss rate for ReadExReq accesses
system.l2.ReadExReq_miss_rate::total         0.988282                       # miss rate for ReadExReq accesses
system.l2.ReadExReq_avg_miss_latency::.cpu.data 108155.617622                       # average ReadExReq miss latency
system.l2.ReadExReq_avg_miss_latency::total 108155.617622                       # average ReadExReq miss latency
system.l2.ReadExReq_mshr_misses::.cpu.data        18976                       # number of ReadExReq MSHR misses
system.l2.ReadExReq_mshr_misses::total          18976                       # number of ReadExReq MSHR misses
system.l2.ReadExReq_mshr_miss_latency::.cpu.data   1672841000                       # number of ReadExReq MSHR miss cycles
system.l2.ReadExReq_mshr_miss_latency::total   1672841000                       # number of ReadExReq MSHR miss cycles
system.l2.ReadExReq_mshr_miss_rate::.cpu.data     0.988282                       # mshr miss rate for ReadExReq accesses
system.l2.ReadExReq_mshr_miss_rate::total     0.988282                       # mshr miss rate for ReadExReq accesses
system.l2.ReadExReq_avg_mshr_miss_latency::.cpu.data 88155.617622                       # average ReadExReq mshr miss latency
system.l2.ReadExReq_avg_mshr_miss_latency::total 88155.617622                       # average ReadExReq mshr miss latency
system.l2.ReadCleanReq_hits::.cpu.inst            755                       # number of ReadCleanReq hits
system.l2.ReadCleanReq_hits::total                755                       # number of ReadCleanReq hits
system.l2.ReadCleanReq_misses::.cpu.inst          333                       # number of ReadCleanReq misses
system.l2.ReadCleanReq_misses::total              333                       # number of ReadCleanReq misses
system.l2.ReadCleanReq_miss_latency::.cpu.inst     33891000                       # number of ReadCleanReq miss cycles
system.l2.ReadCleanReq_miss_latency::total     33891000                       # number of ReadCleanReq miss cycles
system.l2.ReadCleanReq_accesses::.cpu.inst         1088                       # number of ReadCleanReq accesses(hits+misses)
system.l2.ReadCleanReq_accesses::total           1088                       # number of ReadCleanReq accesses(hits+misses)
system.l2.ReadCleanReq_miss_rate::.cpu.inst     0.306066                       # miss rate for ReadCleanReq accesses
system.l2.ReadCleanReq_miss_rate::total      0.306066                       # miss rate for ReadCleanReq accesses
system.l2.ReadCleanReq_avg_miss_latency::.cpu.inst 101774.774775                       # average ReadCleanReq miss latency
system.l2.ReadCleanReq_avg_miss_latency::total 101774.774775                       # average ReadCleanReq miss latency
system.l2.ReadCleanReq_mshr_misses::.cpu.inst          333                       # number of ReadCleanReq MSHR misses
system.l2.ReadCleanReq_mshr_misses::total          333                       # number of ReadCleanReq MSHR misses
system.l2.ReadCleanReq_mshr_miss_latency::.cpu.inst     27231000                       # number of ReadCleanReq MSHR miss cycles
system.l2.ReadCleanReq_mshr_miss_latency::total     27231000                       # number of ReadCleanReq MSHR miss cycles
system.l2.ReadCleanReq_mshr_miss_rate::.cpu.inst     0.306066                       # mshr miss rate for ReadCleanReq accesses
system.l2.ReadCleanReq_mshr_miss_rate::total     0.306066                       # mshr miss rate for ReadCleanReq accesses
system.l2.ReadCleanReq_avg_mshr_miss_latency::.cpu.inst 81774.774775                       # average ReadCleanReq mshr miss latency
system.l2.ReadCleanReq_avg_mshr_miss_latency::total 81774.774775                       # average ReadCleanReq mshr miss latency
system.l2.ReadSharedReq_hits::.cpu.data         15960                       # number of ReadSharedReq hits
system.l2.ReadSharedReq_hits::total             15960                       # number of ReadSharedReq hits
system.l2.ReadSharedReq_misses::.cpu.data          236                       # number of ReadSharedReq misses
system.l2.ReadSharedReq_misses::total             236                       # number of ReadSharedReq misses
system.l2.ReadSharedReq_miss_latency::.cpu.data     27260000                       # number of ReadSharedReq miss cycles
system.l2.ReadSharedReq_miss_latency::total     27260000                       # number of ReadSharedReq miss cycles
system.l2.ReadSharedReq_accesses::.cpu.data        16196                       # number of ReadSharedReq accesses(hits+misses)
system.l2.ReadSharedReq_accesses::total         16196                       # number of ReadSharedReq accesses(hits+misses)
system.l2.ReadSharedReq_miss_rate::.cpu.data     0.014571                       # miss rate for ReadSharedReq accesses
system.l2.ReadSharedReq_miss_rate::total     0.014571                       # miss rate for ReadSharedReq accesses
system.l2.ReadSharedReq_avg_miss_latency::.cpu.data 115508.474576                       # average ReadSharedReq miss latency
system.l2.ReadSharedReq_avg_miss_latency::total 115508.474576                       # average ReadSharedReq miss latency
system.l2.ReadSharedReq_mshr_hits::.cpu.data            3                       # number of ReadSharedReq MSHR hits
system.l2.ReadSharedReq_mshr_hits::total            3                       # number of ReadSharedReq MSHR hits
system.l2.ReadSharedReq_mshr_misses::.cpu.data          233                       # number of ReadSharedReq MSHR misses
system.l2.ReadSharedReq_mshr_misses::total          233                       # number of ReadSharedReq MSHR misses
system.l2.ReadSharedReq_mshr_miss_latency::.cpu.data     22127000                       # number of ReadSharedReq MSHR miss cycles
system.l2.ReadSharedReq_mshr_miss_latency::total     22127000                       # number of ReadSharedReq MSHR miss cycles
system.l2.ReadSharedReq_mshr_miss_rate::.cpu.data     0.014386                       # mshr miss rate for ReadSharedReq accesses
system.l2.ReadSharedReq_mshr_miss_rate::total     0.014386                       # mshr miss rate for ReadSharedReq accesses
system.l2.ReadSharedReq_avg_mshr_miss_latency::.cpu.data 94965.665236                       # average ReadSharedReq mshr miss latency
system.l2.ReadSharedReq_avg_mshr_miss_latency::total 94965.665236                       # average ReadSharedReq mshr miss latency
system.l2.power_state.pwrStateResidencyTicks::UNDEFINED 107306188000                       # Cumulative time (in ticks) in various power states
system.l2.tags.tagsinuse                 13171.839493                       # Cycle average of tags in use
system.l2.tags.total_refs                       72193                       # Total number of references to valid blocks.
system.l2.tags.sampled_refs                     19545                       # Sample count of references to valid blocks.
system.l2.tags.avg_refs                      3.693681                       # Average number of references to valid blocks.
system.l2.tags.warmup_cycle                     92000                       # Cycle when the warmup percentage was hit.
system.l2.tags.occ_blocks::.writebacks       0.381983                       # Average occupied blocks per requestor
system.l2.tags.occ_blocks::.cpu.inst       225.751129                       # Average occupied blocks per requestor
system.l2.tags.occ_blocks::.cpu.data     12945.706381                       # Average occupied blocks per requestor
system.l2.tags.occ_percent::.writebacks      0.000023                       # Average percentage of cache occupancy
system.l2.tags.occ_percent::.cpu.inst        0.013779                       # Average percentage of cache occupancy
system.l2.tags.occ_percent::.cpu.data        0.790143                       # Average percentage of cache occupancy
system.l2.tags.occ_percent::total            0.803945                       # Average percentage of cache occupancy
system.l2.tags.occ_task_id_blocks::1024         16384                       # Occupied blocks per task id
system.l2.tags.age_task_id_blocks_1024::0            1                       # Occupied blocks per task id
system.l2.tags.age_task_id_blocks_1024::1           10                       # Occupied blocks per task id
system.l2.tags.age_task_id_blocks_1024::2           99                       # Occupied blocks per task id
system.l2.tags.age_task_id_blocks_1024::3          962                       # Occupied blocks per task id
system.l2.tags.age_task_id_blocks_1024::4        15312                       # Occupied blocks per task id
system.l2.tags.occ_task_id_percent::1024            1                       # Percentage of cache occupancy per task id
system.l2.tags.tag_accesses                    597129                       # Number of tag accesses
system.l2.tags.data_accesses                   597129                       # Number of data accesses
system.l2.tags.power_state.pwrStateResidencyTicks::UNDEFINED 107306188000                       # Cumulative time (in ticks) in various power states
system.mem_ctrls.avgPriority_.writebacks::samples      5598.00                       # Average QoS priority value for accepted requests
system.mem_ctrls.avgPriority_.cpu.inst::samples       666.00                       # Average QoS priority value for accepted requests
system.mem_ctrls.avgPriority_.cpu.data::samples     38418.00                       # Average QoS priority value for accepted requests
system.mem_ctrls.priorityMinLatency      0.000000018750                       # per QoS priority minimum request to response latency (s)
system.mem_ctrls.priorityMaxLatency      0.036558031500                       # per QoS priority maximum request to response latency (s)
system.mem_ctrls.numReadWriteTurnArounds          310                       # Number of turnarounds from READ to WRITE
system.mem_ctrls.numWriteReadTurnArounds          310                       # Number of turnarounds from WRITE to READ
system.mem_ctrls.numStayReadState               88969                       # Number of times bus staying in READ state
system.mem_ctrls.numStayWriteState               5288                       # Number of times bus staying in WRITE state
system.mem_ctrls.readReqs                       19542                       # Number of read requests accepted
system.mem_ctrls.writeReqs                       2799                       # Number of write requests accepted
system.mem_ctrls.readBursts                     39084                       # Number of controller read bursts, including those serviced by the write queue
system.mem_ctrls.writeBursts                     5598                       # Number of controller write bursts, including those merged in the write queue
system.mem_ctrls.servicedByWrQ                      0                       # Number of controller read bursts serviced by the write queue
system.mem_ctrls.mergedWrBursts                     0                       # Number of controller write bursts merged with an existing one
system.mem_ctrls.neitherReadNorWriteReqs            0                       # Number of requests that are neither read nor write
system.mem_ctrls.avgRdQLen                       2.00                       # Average read queue length when enqueuing
system.mem_ctrls.avgWrQLen                       9.10                       # Average write queue length when enqueuing
system.mem_ctrls.numRdRetry                         0                       # Number of times read queue was full causing retry
system.mem_ctrls.numWrRetry                         0                       # Number of times write queue was full causing retry
system.mem_ctrls.readPktSize::0                     0                       # Read request sizes (log2)
system.mem_ctrls.readPktSize::1                     0                       # Read request sizes (log2)
system.mem_ctrls.readPktSize::2                     0                       # Read request sizes (log2)
system.mem_ctrls.readPktSize::3                     0                       # Read request sizes (log2)
system.mem_ctrls.readPktSize::4                     0                       # Read request sizes (log2)
system.mem_ctrls.readPktSize::5                     0                       # Read request sizes (log2)
system.mem_ctrls.readPktSize::6                 39084                       # Read request sizes (log2)
system.mem_ctrls.readPktSize::7                     0                       # Read request sizes (log2)
system.mem_ctrls.writePktSize::0                    0                       # Write request sizes (log2)
system.mem_ctrls.writePktSize::1                    0                       # Write request sizes (log2)
system.mem_ctrls.writePktSize::2                    0                       # Write request sizes (log2)
system.mem_ctrls.writePktSize::3                    0                       # Write request sizes (log2)
system.mem_ctrls.writePktSize::4                    0                       # Write request sizes (log2)
system.mem_ctrls.writePktSize::5                    0                       # Write request sizes (log2)
system.mem_ctrls.writePktSize::6                 5598                       # Write request sizes (log2)
system.mem_ctrls.writePktSize::7                    0                       # Write request sizes (log2)
system.mem_ctrls.rdQLenPdf::0                   19472                       # What read queue length does an incoming req see
system.mem_ctrls.rdQLenPdf::1                   19477                       # What read queue length does an incoming req see
system.mem_ctrls.rdQLenPdf::2                      64                       # What read queue length does an incoming req see
system.mem_ctrls.rdQLenPdf::3                      61                       # What read queue length does an incoming req see
[...]
system.mem_ctrls.dram.bw_write::.writebacks      3338782                       # Write bandwidth from this memory (bytes/s)
system.mem_ctrls.dram.bw_write::total         3338782                       # Write bandwidth from this memory (bytes/s)
system.mem_ctrls.dram.bw_total::.writebacks      3338782                       # Total bandwidth to/from this memory (bytes/s)
system.mem_ctrls.dram.bw_total::.cpu.inst       397218                       # Total bandwidth to/from this memory (bytes/s)
system.mem_ctrls.dram.bw_total::.cpu.data     22913422                       # Total bandwidth to/from this memory (bytes/s)
system.mem_ctrls.dram.bw_total::total        26649423                       # Total bandwidth to/from this memory (bytes/s)
system.mem_ctrls.dram.readBursts                39084                       # Number of DRAM read bursts
system.mem_ctrls.dram.writeBursts                5583                       # Number of DRAM write bursts
system.mem_ctrls.dram.perBankRdBursts::0         2392                       # Per bank write bursts
system.mem_ctrls.dram.perBankRdBursts::1         2364                       # Per bank write bursts
system.mem_ctrls.dram.perBankRdBursts::2         2400                       # Per bank write bursts
system.mem_ctrls.dram.perBankRdBursts::3         2510                       # Per bank write bursts
system.mem_ctrls.dram.perBankRdBursts::4         2482                       # Per bank write bursts
system.mem_ctrls.dram.perBankRdBursts::5         2492                       # Per bank write bursts
system.mem_ctrls.dram.perBankRdBursts::6         2490                       # Per bank write bursts
system.mem_ctrls.dram.perBankRdBursts::7         2530                       # Per bank write bursts
system.mem_ctrls.dram.perBankRdBursts::8         2514                       # Per bank write bursts
system.mem_ctrls.dram.perBankRdBursts::9         2484                       # Per bank write bursts
system.mem_ctrls.dram.perBankRdBursts::10         2528                       # Per bank write bursts
system.mem_ctrls.dram.perBankRdBursts::11         2472                       # Per bank write bursts
system.mem_ctrls.dram.perBankRdBursts::12         2324                       # Per bank write bursts
system.mem_ctrls.dram.perBankRdBursts::13         2374                       # Per bank write bursts
system.mem_ctrls.dram.perBankRdBursts::14         2358                       # Per bank write bursts
system.mem_ctrls.dram.perBankRdBursts::15         2370                       # Per bank write bursts
system.mem_ctrls.dram.perBankWrBursts::0          284                       # Per bank write bursts
system.mem_ctrls.dram.perBankWrBursts::1          282                       # Per bank write bursts
system.mem_ctrls.dram.perBankWrBursts::2          332                       # Per bank write bursts
system.mem_ctrls.dram.perBankWrBursts::3          410                       # Per bank write bursts
system.mem_ctrls.dram.perBankWrBursts::4          338                       # Per bank write bursts
system.mem_ctrls.dram.perBankWrBursts::5          380                       # Per bank write bursts
system.mem_ctrls.dram.perBankWrBursts::6          400                       # Per bank write bursts
system.mem_ctrls.dram.perBankWrBursts::7          390                       # Per bank write bursts
system.mem_ctrls.dram.perBankWrBursts::8          396                       # Per bank write bursts
system.mem_ctrls.dram.perBankWrBursts::9          414                       # Per bank write bursts
system.mem_ctrls.dram.perBankWrBursts::10          392                       # Per bank write bursts
system.mem_ctrls.dram.perBankWrBursts::11          381                       # Per bank write bursts
system.mem_ctrls.dram.perBankWrBursts::12          276                       # Per bank write bursts
system.mem_ctrls.dram.perBankWrBursts::13          306                       # Per bank write bursts
system.mem_ctrls.dram.perBankWrBursts::14          298                       # Per bank write bursts
system.mem_ctrls.dram.perBankWrBursts::15          304                       # Per bank write bursts
system.mem_ctrls.dram.totQLat               604326000                       # Total ticks spent queuing
system.mem_ctrls.dram.totBusLat             195420000                       # Total ticks spent in databus transfers
system.mem_ctrls.dram.totMemAccLat         1337151000                       # Total ticks spent from burst creation until serviced by the DRAM
system.mem_ctrls.dram.avgQLat                15462.24                       # Average queueing delay per DRAM burst
system.mem_ctrls.dram.avgBusLat               5000.00                       # Average bus latency per DRAM burst
system.mem_ctrls.dram.avgMemAccLat           34212.24                       # Average memory access latency per DRAM burst
system.mem_ctrls.dram.readRowHits               25823                       # Number of row buffer hits during reads
system.mem_ctrls.dram.writeRowHits               4809                       # Number of row buffer hits during writes
system.mem_ctrls.dram.readRowHitRate            66.07                       # Row buffer hit rate for reads
system.mem_ctrls.dram.writeRowHitRate           86.14                       # Row buffer hit rate for writes
system.mem_ctrls.dram.bytesPerActivate::samples        14035                       # Bytes accessed per row activation
system.mem_ctrls.dram.bytesPerActivate::mean   203.682793                       # Bytes accessed per row activation
system.mem_ctrls.dram.bytesPerActivate::gmean   169.801947                       # Bytes accessed per row activation
system.mem_ctrls.dram.bytesPerActivate::stdev   162.980095                       # Bytes accessed per row activation
system.mem_ctrls.dram.bytesPerActivate::0-127           47      0.33%      0.33% # Bytes accessed per row activation
system.mem_ctrls.dram.bytesPerActivate::128-255        10420     74.24%     74.58% # Bytes accessed per row activation
system.mem_ctrls.dram.bytesPerActivate::256-383         1265      9.01%     83.59% # Bytes accessed per row activation
system.mem_ctrls.dram.bytesPerActivate::384-511         1170      8.34%     91.93% # Bytes accessed per row activation
system.mem_ctrls.dram.bytesPerActivate::512-639          540      3.85%     95.77% # Bytes accessed per row activation
system.mem_ctrls.dram.bytesPerActivate::640-767          331      2.36%     98.13% # Bytes accessed per row activation
system.mem_ctrls.dram.bytesPerActivate::768-895           50      0.36%     98.49% # Bytes accessed per row activation
system.mem_ctrls.dram.bytesPerActivate::896-1023           44      0.31%     98.80% # Bytes accessed per row activation
system.mem_ctrls.dram.bytesPerActivate::1024-1151          168      1.20%    100.00% # Bytes accessed per row activation
system.mem_ctrls.dram.bytesPerActivate::total        14035                       # Bytes accessed per row activation
system.mem_ctrls.dram.bytesRead               2501376                       # Total number of bytes read from DRAM
system.mem_ctrls.dram.bytesWritten             357312                       # Total number of bytes written to DRAM
system.mem_ctrls.dram.avgRdBW               23.310641                       # Average DRAM read bandwidth in MiBytes/s
system.mem_ctrls.dram.avgWrBW                3.329836                       # Average DRAM write bandwidth in MiBytes/s
system.mem_ctrls.dram.peakBW                 12800.00                       # Theoretical peak bandwidth in MiByte/s
system.mem_ctrls.dram.busUtil                    0.21                       # Data bus utilization in percentage
system.mem_ctrls.dram.busUtilRead                0.18                       # Data bus utilization in percentage for reads
system.mem_ctrls.dram.busUtilWrite               0.03                       # Data bus utilization in percentage for writes
system.mem_ctrls.dram.pageHitRate               68.58                       # Row buffer hit rate, read and write combined
system.mem_ctrls.dram.power_state.pwrStateResidencyTicks::UNDEFINED 107306188000                       # Cumulative time (in ticks) in various power states
system.mem_ctrls.dram.rank0.actEnergy        50458380                       # Energy for activate commands per rank (pJ)
system.mem_ctrls.dram.rank0.preEnergy        26819265                       # Energy for precharge commands per rank (pJ)
system.mem_ctrls.dram.rank0.readEnergy      140372400                       # Energy for read commands per rank (pJ)
system.mem_ctrls.dram.rank0.writeEnergy      14699520                       # Energy for write commands per rank (pJ)
system.mem_ctrls.dram.rank0.refreshEnergy 8470353840.000001                       # Energy for refresh commands per rank (pJ)
system.mem_ctrls.dram.rank0.actBackEnergy  12907492680                       # Energy for active background per rank (pJ)
system.mem_ctrls.dram.rank0.preBackEnergy  30336108960                       # Energy for precharge background per rank (pJ)
system.mem_ctrls.dram.rank0.actPowerDownEnergy            0                       # Energy for active power-down per rank (pJ)
system.mem_ctrls.dram.rank0.prePowerDownEnergy            0                       # Energy for precharge power-down per rank (pJ)
system.mem_ctrls.dram.rank0.selfRefreshEnergy            0                       # Energy for self refresh per rank (pJ)
system.mem_ctrls.dram.rank0.totalEnergy   51946305045                       # Total energy per rank (pJ)
system.mem_ctrls.dram.rank0.averagePower   484.094217                       # Core power per rank (mW)
system.mem_ctrls.dram.rank0.totalIdleTime            0                       # Total Idle time Per DRAM Rank
system.mem_ctrls.dram.rank0.pwrStateTime::IDLE  78726522000                       # Time in different power states
system.mem_ctrls.dram.rank0.pwrStateTime::REF   3583060000                       # Time in different power states
system.mem_ctrls.dram.rank0.pwrStateTime::SREF            0                       # Time in different power states
system.mem_ctrls.dram.rank0.pwrStateTime::PRE_PDN            0                       # Time in different power states
system.mem_ctrls.dram.rank0.pwrStateTime::ACT  24996606000                       # Time in different power states
system.mem_ctrls.dram.rank0.pwrStateTime::ACT_PDN            0                       # Time in different power states
system.mem_ctrls.dram.rank1.actEnergy        49751520                       # Energy for activate commands per rank (pJ)
system.mem_ctrls.dram.rank1.preEnergy        26443560                       # Energy for precharge commands per rank (pJ)
system.mem_ctrls.dram.rank1.readEnergy      138687360                       # Energy for read commands per rank (pJ)
system.mem_ctrls.dram.rank1.writeEnergy      14443740                       # Energy for write commands per rank (pJ)
system.mem_ctrls.dram.rank1.refreshEnergy 8470353840.000001                       # Energy for refresh commands per rank (pJ)
system.mem_ctrls.dram.rank1.actBackEnergy  12780443100                       # Energy for active background per rank (pJ)
system.mem_ctrls.dram.rank1.preBackEnergy  30443098080                       # Energy for precharge background per rank (pJ)
system.mem_ctrls.dram.rank1.actPowerDownEnergy            0                       # Energy for active power-down per rank (pJ)
system.mem_ctrls.dram.rank1.prePowerDownEnergy            0                       # Energy for precharge power-down per rank (pJ)
system.mem_ctrls.dram.rank1.selfRefreshEnergy            0                       # Energy for self refresh per rank (pJ)
system.mem_ctrls.dram.rank1.totalEnergy   51923221200                       # Total energy per rank (pJ)
system.mem_ctrls.dram.rank1.averagePower   483.879096                       # Core power per rank (mW)
system.mem_ctrls.dram.rank1.totalIdleTime            0                       # Total Idle time Per DRAM Rank
system.mem_ctrls.dram.rank1.pwrStateTime::IDLE  79006541000                       # Time in different power states
system.mem_ctrls.dram.rank1.pwrStateTime::REF   3583060000                       # Time in different power states
system.mem_ctrls.dram.rank1.pwrStateTime::SREF            0                       # Time in different power states
system.mem_ctrls.dram.rank1.pwrStateTime::PRE_PDN            0                       # Time in different power states
system.mem_ctrls.dram.rank1.pwrStateTime::ACT  24716587000                       # Time in different power states
system.mem_ctrls.dram.rank1.pwrStateTime::ACT_PDN            0                       # Time in different power states
system.mem_ctrls.power_state.pwrStateResidencyTicks::UNDEFINED 107306188000                       # Cumulative time (in ticks) in various power states
system.membus.trans_dist::ReadResp                566                       # Transaction distribution
system.membus.trans_dist::WritebackDirty         2799                       # Transaction distribution
system.membus.trans_dist::CleanEvict              145                       # Transaction distribution
system.membus.trans_dist::ReadExReq             18976                       # Transaction distribution
system.membus.trans_dist::ReadExResp            18976                       # Transaction distribution
system.membus.trans_dist::ReadSharedReq           566                       # Transaction distribution
system.membus.pkt_count_system.l2.mem_side_port::system.mem_ctrls.port        42028                       # Packet count per connected requestor and responder (bytes)
system.membus.pkt_count::total                  42028                       # Packet count per connected requestor and responder (bytes)
system.membus.pkt_size_system.l2.mem_side_port::system.mem_ctrls.port      2859648                       # Cumulative packet size per connected requestor and responder (bytes)
system.membus.pkt_size::total                 2859648                       # Cumulative packet size per connected requestor and responder (bytes)
system.membus.snoops                                0                       # Total snoops (count)
system.membus.snoopTraffic                          0                       # Total snoop traffic (bytes)
system.membus.snoop_fanout::samples             19542                       # Request fanout histogram
system.membus.snoop_fanout::mean                    0                       # Request fanout histogram
system.membus.snoop_fanout::stdev                   0                       # Request fanout histogram
system.membus.snoop_fanout::underflows              0      0.00%      0.00% # Request fanout histogram
system.membus.snoop_fanout::0                   19542    100.00%    100.00% # Request fanout histogram
system.membus.snoop_fanout::1                       0      0.00%    100.00% # Request fanout histogram
system.membus.snoop_fanout::overflows               0      0.00%    100.00% # Request fanout histogram
system.membus.snoop_fanout::min_value               0                       # Request fanout histogram
system.membus.snoop_fanout::max_value               0                       # Request fanout histogram
system.membus.snoop_fanout::total               19542                       # Request fanout histogram
system.membus.power_state.pwrStateResidencyTicks::UNDEFINED 107306188000                       # Cumulative time (in ticks) in various power states
system.membus.reqLayer0.occupancy            44878000                       # Layer occupancy (ticks)
system.membus.reqLayer0.utilization               0.0                       # Layer utilization (%)
system.membus.respLayer1.occupancy          184004500                       # Layer occupancy (ticks)
system.membus.respLayer1.utilization              0.2                       # Layer utilization (%)
system.tol2bus.trans_dist::ReadResp             17284                       # Transaction distribution
system.tol2bus.trans_dist::WritebackDirty        34665                       # Transaction distribution
system.tol2bus.trans_dist::WritebackClean          864                       # Transaction distribution
system.tol2bus.trans_dist::CleanEvict            3381                       # Transaction distribution
system.tol2bus.trans_dist::ReadExReq            19201                       # Transaction distribution
system.tol2bus.trans_dist::ReadExResp           19201                       # Transaction distribution
system.tol2bus.trans_dist::ReadCleanReq          1088                       # Transaction distribution
system.tol2bus.trans_dist::ReadSharedReq        16196                       # Transaction distribution
system.tol2bus.pkt_count_system.cpu.icache.mem_side_port::system.l2.cpu_side_port         3040                       # Packet count per connected requestor and responder (bytes)
system.tol2bus.pkt_count_system.cpu.dcache.mem_side_port::system.l2.cpu_side_port       105679                       # Packet count per connected requestor and responder (bytes)
system.tol2bus.pkt_count::total                108719                       # Packet count per connected requestor and responder (bytes)
system.tol2bus.pkt_size_system.cpu.icache.mem_side_port::system.l2.cpu_side_port       249856                       # Cumulative packet size per connected requestor and responder (bytes)
system.tol2bus.pkt_size_system.cpu.dcache.mem_side_port::system.l2.cpu_side_port      8609664                       # Cumulative packet size per connected requestor and responder (bytes)
system.tol2bus.pkt_size::total                8859520                       # Cumulative packet size per connected requestor and responder (bytes)
system.tol2bus.snoops                            3161                       # Total snoops (count)
system.tol2bus.snoopTraffic                    358272                       # Total snoop traffic (bytes)
system.tol2bus.snoop_fanout::samples            39646                       # Request fanout histogram
system.tol2bus.snoop_fanout::mean            0.006508                       # Request fanout histogram
system.tol2bus.snoop_fanout::stdev           0.080408                       # Request fanout histogram
system.tol2bus.snoop_fanout::underflows             0      0.00%      0.00% # Request fanout histogram
system.tol2bus.snoop_fanout::0                  39388     99.35%     99.35% # Request fanout histogram
system.tol2bus.snoop_fanout::1                    258      0.65%    100.00% # Request fanout histogram
system.tol2bus.snoop_fanout::2                      0      0.00%    100.00% # Request fanout histogram
system.tol2bus.snoop_fanout::overflows              0      0.00%    100.00% # Request fanout histogram
system.tol2bus.snoop_fanout::min_value              0                       # Request fanout histogram
system.tol2bus.snoop_fanout::max_value              1                       # Request fanout histogram
system.tol2bus.snoop_fanout::total              39646                       # Request fanout histogram
system.tol2bus.power_state.pwrStateResidencyTicks::UNDEFINED 107306188000                       # Cumulative time (in ticks) in various power states
system.tol2bus.reqLayer0.occupancy          203154000                       # Layer occupancy (ticks)
system.tol2bus.reqLayer0.utilization              0.2                       # Layer utilization (%)
system.tol2bus.respLayer0.occupancy           5440000                       # Layer occupancy (ticks)
system.tol2bus.respLayer0.utilization             0.0                       # Layer utilization (%)
system.tol2bus.respLayer1.occupancy         176987997                       # Layer occupancy (ticks)
system.tol2bus.respLayer1.utilization             0.2                       # Layer utilization (%)
system.voltage_domain.voltage                       1                       # Voltage in Volts

---------- End Simulation Statistics   ----------
