
---------- Begin Simulation Statistics ----------
final_tick                               161052219000                       # Number of ticks from beginning of simulation (restored from checkpoints and never reset)
host_inst_rate                                 203530                       # Simulator instruction rate (inst/s)
host_mem_usage                                 722140                       # Number of bytes of host memory used
host_op_rate                                   203936                       # Simulator op (including micro ops) rate (op/s)
host_seconds                                   491.33                       # Real time elapsed on the host
host_tick_rate                              327789241                       # Simulator tick rate (ticks/s)
sim_freq                                 1000000000000                       # Frequency of simulated ticks
sim_insts                                   100000000                       # Number of instructions simulated
sim_ops                                     100199496                       # Number of ops (including micro ops) simulated
sim_seconds                                  0.161052                       # Number of seconds simulated
sim_ticks                                161052219000                       # Number of ticks simulated
system.cpu.committedInsts                   100000000                       # Number of instructions committed
system.cpu.committedOps                     100199496                       # Number of ops (including micro ops) committed
system.cpu.cpi                               1.610522                       # CPI: cycles per instruction
system.cpu.discardedOps                        197521                       # Number of ops (including micro ops) which were discarded before commit
system.cpu.idleCycles                        28225145                       # Total number of cycles that the object has spent stopped
system.cpu.ipc                               0.620917                       # IPC: instructions per cycle
system.cpu.numCycles                        161052219                       # number of cpu cycles simulated
system.cpu.numFetchSuspends                         0                       # Number of times Execute suspended instruction fetching
system.cpu.numWorkItemsCompleted                    0                       # number of work items this cpu completed
system.cpu.numWorkItemsStarted                      0                       # number of work items this cpu started
system.cpu.op_class_0::No_OpClass                   0      0.00%      0.00% # Class of committed instruction
system.cpu.op_class_0::IntAlu                46438739     46.35%     46.35% # Class of committed instruction
system.cpu.op_class_0::IntMult                  20720      0.02%     46.37% # Class of committed instruction
system.cpu.op_class_0::IntDiv                       0      0.00%     46.37% # Class of committed instruction
system.cpu.op_class_0::FloatAdd                     0      0.00%     46.37% # Class of committed instruction
system.cpu.op_class_0::FloatCmp                     0      0.00%     46.37% # Class of committed instruction
system.cpu.op_class_0::FloatCvt                     0      0.00%     46.37% # Class of committed instruction
system.cpu.op_class_0::FloatMult                    0      0.00%     46.37% # Class of committed instruction
system.cpu.op_class_0::FloatMultAcc                 0      0.00%     46.37% # Class of committed instruction
system.cpu.op_class_0::FloatDiv                     0      0.00%     46.37% # Class of committed instruction
system.cpu.op_class_0::FloatMisc                    0      0.00%     46.37% # Class of committed instruction
system.cpu.op_class_0::FloatSqrt                    0      0.00%     46.37% # Class of committed instruction
system.cpu.op_class_0::SimdAdd                      0      0.00%     46.37% # Class of committed instruction
system.cpu.op_class_0::SimdAddAcc                   0      0.00%     46.37% # Class of committed instruction
system.cpu.op_class_0::SimdAlu                      0      0.00%     46.37% # Class of committed instruction
system.cpu.op_class_0::SimdCmp                      0      0.00%     46.37% # Class of committed instruction
system.cpu.op_class_0::SimdCvt                      0      0.00%     46.37% # Class of committed instruction
system.cpu.op_class_0::SimdMisc                     0      0.00%     46.37% # Class of committed instruction
system.cpu.op_class_0::SimdMult                     0      0.00%     46.37% # Class of committed instruction
system.cpu.op_class_0::SimdMultAcc                  0      0.00%     46.37% # Class of committed instruction
system.cpu.op_class_0::SimdShift                    0      0.00%     46.37% # Class of committed instruction
system.cpu.op_class_0::SimdShiftAcc                 0      0.00%     46.37% # Class of committed instruction
system.cpu.op_class_0::SimdDiv                      0      0.00%     46.37% # Class of committed instruction
system.cpu.op_class_0::SimdSqrt                     0      0.00%     46.37% # Class of committed instruction
system.cpu.op_class_0::SimdFloatAdd                 0      0.00%     46.37% # Class of committed instruction
system.cpu.op_class_0::SimdFloatAlu                 0      0.00%     46.37% # Class of committed instruction
system.cpu.op_class_0::SimdFloatCmp                 0      0.00%     46.37% # Class of committed instruction
system.cpu.op_class_0::SimdFloatCvt                 0      0.00%     46.37% # Class of committed instruction
system.cpu.op_class_0::SimdFloatDiv                 0      0.00%     46.37% # Class of committed instruction
system.cpu.op_class_0::SimdFloatMisc                1      0.00%     46.37% # Class of committed instruction
system.cpu.op_class_0::SimdFloatMult                0      0.00%     46.37% # Class of committed instruction
system.cpu.op_class_0::SimdFloatMultAcc             0      0.00%     46.37% # Class of committed instruction
system.cpu.op_class_0::SimdFloatSqrt                0      0.00%     46.37% # Class of committed instruction
system.cpu.op_class_0::SimdReduceAdd                0      0.00%     46.37% # Class of committed instruction
system.cpu.op_class_0::SimdReduceAlu                0      0.00%     46.37% # Class of committed instruction
system.cpu.op_class_0::SimdReduceCmp                0      0.00%     46.37% # Class of committed instruction
system.cpu.op_class_0::SimdFloatReduceAdd            0      0.00%     46.37% # Class of committed instruction
system.cpu.op_class_0::SimdFloatReduceCmp            0      0.00%     46.37% # Class of committed instruction
system.cpu.op_class_0::SimdAes                      0      0.00%     46.37% # Class of committed instruction
system.cpu.op_class_0::SimdAesMix                   0      0.00%     46.37% # Class of committed instruction
system.cpu.op_class_0::SimdSha1Hash                 0      0.00%     46.37% # Class of committed instruction
system.cpu.op_class_0::SimdSha1Hash2                0      0.00%     46.37% # Class of committed instruction
system.cpu.op_class_0::SimdSha256Hash               0      0.00%     46.37% # Class of committed instruction
system.cpu.op_class_0::SimdSha256Hash2              0      0.00%     46.37% # Class of committed instruction
system.cpu.op_class_0::SimdShaSigma2                0      0.00%     46.37% # Class of committed instruction
system.cpu.op_class_0::SimdShaSigma3                0      0.00%     46.37% # Class of committed instruction
system.cpu.op_class_0::SimdPredAlu                  0      0.00%     46.37% # Class of committed instruction
system.cpu.op_class_0::MemRead               42753845     42.67%     89.04% # Class of committed instruction
system.cpu.op_class_0::MemWrite              10986191     10.96%    100.00% # Class of committed instruction
system.cpu.op_class_0::FloatMemRead                 0      0.00%    100.00% # Class of committed instruction
system.cpu.op_class_0::FloatMemWrite                0      0.00%    100.00% # Class of committed instruction
system.cpu.op_class_0::IprAccess                    0      0.00%    100.00% # Class of committed instruction
system.cpu.op_class_0::InstPrefetch                 0      0.00%    100.00% # Class of committed instruction
system.cpu.op_class_0::total                100199496                       # Class of committed instruction
system.cpu.tickCycles                       132827074                       # Number of cycles that the object actually ticked
system.cpu.workload.numSyscalls                    85                       # Number of system calls
system.membus.snoop_filter.hit_multi_requests            0                       # Number of requests hitting in the snoop filter with multiple (>1) holders of the requested data.
system.membus.snoop_filter.hit_multi_snoops            0                       # Number of snoops hitting in the snoop filter with multiple (>1) holders of the requested data.
system.membus.snoop_filter.hit_single_requests       174439                       # Number of requests hitting in the snoop filter with a single holder of the requested data.
system.membus.snoop_filter.hit_single_snoops            0                       # Number of snoops hitting in the snoop filter with a single holder of the requested data.
system.membus.snoop_filter.tot_requests        382018                       # Total number of requests made to the snoop filter.
system.membus.snoop_filter.tot_snoops               0                       # Total number of snoops made to the snoop filter.
system.tol2bus.snoop_filter.hit_multi_requests          198                       # Number of requests hitting in the snoop filter with multiple (>1) holders of the requested data.
system.tol2bus.snoop_filter.hit_multi_snoops            1                       # Number of snoops hitting in the snoop filter with multiple (>1) holders of the requested data.
system.tol2bus.snoop_filter.hit_single_requests       683946                       # Number of requests hitting in the snoop filter with a single holder of the requested data.
system.tol2bus.snoop_filter.hit_single_snoops         3986                       # Number of snoops hitting in the snoop filter with a single holder of the requested data.
system.tol2bus.snoop_filter.tot_requests      1369355                       # Total number of requests made to the snoop filter.
system.tol2bus.snoop_filter.tot_snoops           3987                       # Total number of snoops made to the snoop filter.
system.clk_domain.clock                          1000                       # Clock period in ticks
system.cpu.branchPred.lookups                 4397359                       # Number of BP lookups
system.cpu.branchPred.condPredicted           3642725                       # Number of conditional branches predicted
system.cpu.branchPred.condIncorrect             83177                       # Number of conditional branches incorrect
system.cpu.branchPred.BTBLookups              2112891                       # Number of BTB lookups
system.cpu.branchPred.BTBHits                 2110694                       # Number of BTB hits
system.cpu.branchPred.BTBHitPct             99.896019                       # BTB Hit Percentage
system.cpu.branchPred.RASUsed                   66041                       # Number of times the RAS was used to get a target.
system.cpu.branchPred.RASIncorrect                 15                       # Number of incorrect RAS predictions.
system.cpu.branchPred.indirectLookups             682                       # Number of indirect predictor lookups.
system.cpu.branchPred.indirectHits                295                       # Number of indirect target hits.
system.cpu.branchPred.indirectMisses              387                       # Number of indirect misses.
system.cpu.branchPred.indirectMispredicted          165                       # Number of mispredicted indirect branches.
system.cpu.dcache.demand_hits::.cpu.data     51419818                       # number of demand (read+write) hits
system.cpu.dcache.demand_hits::total         51419818                       # number of demand (read+write) hits
system.cpu.dcache.overall_hits::.cpu.data     51420322                       # number of overall hits
system.cpu.dcache.overall_hits::total        51420322                       # number of overall hits
system.cpu.dcache.demand_misses::.cpu.data       728833                       # number of demand (read+write) misses
system.cpu.dcache.demand_misses::total         728833                       # number of demand (read+write) misses
system.cpu.dcache.overall_misses::.cpu.data       736748                       # number of overall misses
system.cpu.dcache.overall_misses::total        736748                       # number of overall misses
system.cpu.dcache.demand_miss_latency::.cpu.data  35703335000                       # number of demand (read+write) miss cycles
system.cpu.dcache.demand_miss_latency::total  35703335000                       # number of demand (read+write) miss cycles
system.cpu.dcache.overall_miss_latency::.cpu.data  35703335000                       # number of overall miss cycles
system.cpu.dcache.overall_miss_latency::total  35703335000                       # number of overall miss cycles
system.cpu.dcache.demand_accesses::.cpu.data     52148651                       # number of demand (read+write) accesses
system.cpu.dcache.demand_accesses::total     52148651                       # number of demand (read+write) accesses
system.cpu.dcache.overall_accesses::.cpu.data     52157070                       # number of overall (read+write) accesses
system.cpu.dcache.overall_accesses::total     52157070                       # number of overall (read+write) accesses
system.cpu.dcache.demand_miss_rate::.cpu.data     0.013976                       # miss rate for demand accesses
system.cpu.dcache.demand_miss_rate::total     0.013976                       # miss rate for demand accesses
system.cpu.dcache.overall_miss_rate::.cpu.data     0.014126                       # miss rate for overall accesses
system.cpu.dcache.overall_miss_rate::total     0.014126                       # miss rate for overall accesses
system.cpu.dcache.demand_avg_miss_latency::.cpu.data 48986.990161                       # average overall miss latency
system.cpu.dcache.demand_avg_miss_latency::total 48986.990161                       # average overall miss latency
system.cpu.dcache.overall_avg_miss_latency::.cpu.data 48460.715197                       # average overall miss latency
system.cpu.dcache.overall_avg_miss_latency::total 48460.715197                       # average overall miss latency
system.cpu.dcache.blocked_cycles::no_mshrs       108984                       # number of cycles access was blocked
system.cpu.dcache.blocked_cycles::no_targets            0                       # number of cycles access was blocked
system.cpu.dcache.blocked::no_mshrs              3239                       # number of cycles access was blocked
system.cpu.dcache.blocked::no_targets               0                       # number of cycles access was blocked
system.cpu.dcache.avg_blocked_cycles::no_mshrs    33.647422                       # average number of cycles each access was blocked
system.cpu.dcache.avg_blocked_cycles::no_targets          nan                       # average number of cycles each access was blocked
system.cpu.dcache.writebacks::.writebacks       603332                       # number of writebacks
system.cpu.dcache.writebacks::total            603332                       # number of writebacks
system.cpu.dcache.demand_mshr_hits::.cpu.data        52108                       # number of demand (read+write) MSHR hits
system.cpu.dcache.demand_mshr_hits::total        52108                       # number of demand (read+write) MSHR hits
system.cpu.dcache.overall_mshr_hits::.cpu.data        52108                       # number of overall MSHR hits
system.cpu.dcache.overall_mshr_hits::total        52108                       # number of overall MSHR hits
system.cpu.dcache.demand_mshr_misses::.cpu.data       676725                       # number of demand (read+write) MSHR misses
system.cpu.dcache.demand_mshr_misses::total       676725                       # number of demand (read+write) MSHR misses
system.cpu.dcache.overall_mshr_misses::.cpu.data       684634                       # number of overall MSHR misses
system.cpu.dcache.overall_mshr_misses::total       684634                       # number of overall MSHR misses
system.cpu.dcache.demand_mshr_miss_latency::.cpu.data  32758535000                       # number of demand (read+write) MSHR miss cycles
system.cpu.dcache.demand_mshr_miss_latency::total  32758535000                       # number of demand (read+write) MSHR miss cycles
system.cpu.dcache.overall_mshr_miss_latency::.cpu.data  33598906999                       # number of overall MSHR miss cycles
system.cpu.dcache.overall_mshr_miss_latency::total  33598906999                       # number of overall MSHR miss cycles
system.cpu.dcache.demand_mshr_miss_rate::.cpu.data     0.012977                       # mshr miss rate for demand accesses
system.cpu.dcache.demand_mshr_miss_rate::total     0.012977                       # mshr miss rate for demand accesses
system.cpu.dcache.overall_mshr_miss_rate::.cpu.data     0.013126                       # mshr miss rate for overall accesses
system.cpu.dcache.overall_mshr_miss_rate::total     0.013126                       # mshr miss rate for overall accesses
system.cpu.dcache.demand_avg_mshr_miss_latency::.cpu.data 48407.455022                       # average overall mshr miss latency
system.cpu.dcache.demand_avg_mshr_miss_latency::total 48407.455022                       # average overall mshr miss latency
system.cpu.dcache.overall_avg_mshr_miss_latency::.cpu.data 49075.720749                       # average overall mshr miss latency
system.cpu.dcache.overall_avg_mshr_miss_latency::total 49075.720749                       # average overall mshr miss latency
system.cpu.dcache.replacements                 683613                       # number of replacements
system.cpu.dcache.ReadReq_hits::.cpu.data     40782130                       # number of ReadReq hits
system.cpu.dcache.ReadReq_hits::total        40782130                       # number of ReadReq hits
system.cpu.dcache.ReadReq_misses::.cpu.data       389466                       # number of ReadReq misses
system.cpu.dcache.ReadReq_misses::total        389466                       # number of ReadReq misses
system.cpu.dcache.ReadReq_miss_latency::.cpu.data  14932712000                       # number of ReadReq miss cycles
system.cpu.dcache.ReadReq_miss_latency::total  14932712000                       # number of ReadReq miss cycles
system.cpu.dcache.ReadReq_accesses::.cpu.data     41171596                       # number of ReadReq accesses(hits+misses)
system.cpu.dcache.ReadReq_accesses::total     41171596                       # number of ReadReq accesses(hits+misses)
system.cpu.dcache.ReadReq_miss_rate::.cpu.data     0.009460                       # miss rate for ReadReq accesses
system.cpu.dcache.ReadReq_miss_rate::total     0.009460                       # miss rate for ReadReq accesses
system.cpu.dcache.ReadReq_avg_miss_latency::.cpu.data 38341.503495                       # average ReadReq miss latency
system.cpu.dcache.ReadReq_avg_miss_latency::total 38341.503495                       # average ReadReq miss latency
system.cpu.dcache.ReadReq_mshr_hits::.cpu.data           76                       # number of ReadReq MSHR hits
system.cpu.dcache.ReadReq_mshr_hits::total           76                       # number of ReadReq MSHR hits
system.cpu.dcache.ReadReq_mshr_misses::.cpu.data       389390                       # number of ReadReq MSHR misses
system.cpu.dcache.ReadReq_mshr_misses::total       389390                       # number of ReadReq MSHR misses
system.cpu.dcache.ReadReq_mshr_miss_latency::.cpu.data  14150545000                       # number of ReadReq MSHR miss cycles
system.cpu.dcache.ReadReq_mshr_miss_latency::total  14150545000                       # number of ReadReq MSHR miss cycles
system.cpu.dcache.ReadReq_mshr_miss_rate::.cpu.data     0.009458                       # mshr miss rate for ReadReq accesses
system.cpu.dcache.ReadReq_mshr_miss_rate::total     0.009458                       # mshr miss rate for ReadReq accesses
system.cpu.dcache.ReadReq_avg_mshr_miss_latency::.cpu.data 36340.288657                       # average ReadReq mshr miss latency
system.cpu.dcache.ReadReq_avg_mshr_miss_latency::total 36340.288657                       # average ReadReq mshr miss latency
system.cpu.dcache.WriteReq_hits::.cpu.data     10637688                       # number of WriteReq hits
system.cpu.dcache.WriteReq_hits::total       10637688                       # number of WriteReq hits
system.cpu.dcache.WriteReq_misses::.cpu.data       339367                       # number of WriteReq misses
system.cpu.dcache.WriteReq_misses::total       339367                       # number of WriteReq misses
system.cpu.dcache.WriteReq_miss_latency::.cpu.data  20770623000                       # number of WriteReq miss cycles
system.cpu.dcache.WriteReq_miss_latency::total  20770623000                       # number of WriteReq miss cycles
system.cpu.dcache.WriteReq_accesses::.cpu.data     10977055                       # number of WriteReq accesses(hits+misses)
system.cpu.dcache.WriteReq_accesses::total     10977055                       # number of WriteReq accesses(hits+misses)
system.cpu.dcache.WriteReq_miss_rate::.cpu.data     0.030916                       # miss rate for WriteReq accesses
system.cpu.dcache.WriteReq_miss_rate::total     0.030916                       # miss rate for WriteReq accesses
system.cpu.dcache.WriteReq_avg_miss_latency::.cpu.data 61204.015122                       # average WriteReq miss latency
system.cpu.dcache.WriteReq_avg_miss_latency::total 61204.015122                       # average WriteReq miss latency
system.cpu.dcache.WriteReq_mshr_hits::.cpu.data        52032                       # number of WriteReq MSHR hits
system.cpu.dcache.WriteReq_mshr_hits::total        52032                       # number of WriteReq MSHR hits
system.cpu.dcache.WriteReq_mshr_misses::.cpu.data       287335                       # number of WriteReq MSHR misses
system.cpu.dcache.WriteReq_mshr_misses::total       287335                       # number of WriteReq MSHR misses
system.cpu.dcache.WriteReq_mshr_miss_latency::.cpu.data  18607990000                       # number of WriteReq MSHR miss cycles
system.cpu.dcache.WriteReq_mshr_miss_latency::total  18607990000                       # number of WriteReq MSHR miss cycles
system.cpu.dcache.WriteReq_mshr_miss_rate::.cpu.data     0.026176                       # mshr miss rate for WriteReq accesses
system.cpu.dcache.WriteReq_mshr_miss_rate::total     0.026176                       # mshr miss rate for WriteReq accesses
system.cpu.dcache.WriteReq_avg_mshr_miss_latency::.cpu.data 64760.610437                       # average WriteReq mshr miss latency
system.cpu.dcache.WriteReq_avg_mshr_miss_latency::total 64760.610437                       # average WriteReq mshr miss latency
system.cpu.dcache.SoftPFReq_hits::.cpu.data          504                       # number of SoftPFReq hits
system.cpu.dcache.SoftPFReq_hits::total           504                       # number of SoftPFReq hits
system.cpu.dcache.SoftPFReq_misses::.cpu.data         7915                       # number of SoftPFReq misses
system.cpu.dcache.SoftPFReq_misses::total         7915                       # number of SoftPFReq misses
system.cpu.dcache.SoftPFReq_accesses::.cpu.data         8419                       # number of SoftPFReq accesses(hits+misses)
system.cpu.dcache.SoftPFReq_accesses::total         8419                       # number of SoftPFReq accesses(hits+misses)
system.cpu.dcache.SoftPFReq_miss_rate::.cpu.data     0.940135                       # miss rate for SoftPFReq accesses
system.cpu.dcache.SoftPFReq_miss_rate::total     0.940135                       # miss rate for SoftPFReq accesses
system.cpu.dcache.SoftPFReq_mshr_misses::.cpu.data         7909                       # number of SoftPFReq MSHR misses
system.cpu.dcache.SoftPFReq_mshr_misses::total         7909                       # number of SoftPFReq MSHR misses
system.cpu.dcache.SoftPFReq_mshr_miss_latency::.cpu.data    840371999                       # number of SoftPFReq MSHR miss cycles
system.cpu.dcache.SoftPFReq_mshr_miss_latency::total    840371999                       # number of SoftPFReq MSHR miss cycles
system.cpu.dcache.SoftPFReq_mshr_miss_rate::.cpu.data     0.939423                       # mshr miss rate for SoftPFReq accesses
system.cpu.dcache.SoftPFReq_mshr_miss_rate::total     0.939423                       # mshr miss rate for SoftPFReq accesses
system.cpu.dcache.SoftPFReq_avg_mshr_miss_latency::.cpu.data 106255.152232                       # average SoftPFReq mshr miss latency
system.cpu.dcache.SoftPFReq_avg_mshr_miss_latency::total 106255.152232                       # average SoftPFReq mshr miss latency
system.cpu.dcache.LoadLockedReq_hits::.cpu.data           34                       # number of LoadLockedReq hits
system.cpu.dcache.LoadLockedReq_hits::total           34                       # number of LoadLockedReq hits
system.cpu.dcache.LoadLockedReq_misses::.cpu.data            4                       # number of LoadLockedReq misses
system.cpu.dcache.LoadLockedReq_misses::total            4                       # number of LoadLockedReq misses
system.cpu.dcache.LoadLockedReq_miss_latency::.cpu.data       492000                       # number of LoadLockedReq miss cycles
system.cpu.dcache.LoadLockedReq_miss_latency::total       492000                       # number of LoadLockedReq miss cycles
system.cpu.dcache.LoadLockedReq_accesses::.cpu.data           38                       # number of LoadLockedReq accesses(hits+misses)
system.cpu.dcache.LoadLockedReq_accesses::total           38                       # number of LoadLockedReq accesses(hits+misses)
system.cpu.dcache.LoadLockedReq_miss_rate::.cpu.data     0.105263                       # miss rate for LoadLockedReq accesses
system.cpu.dcache.LoadLockedReq_miss_rate::total     0.105263                       # miss rate for LoadLockedReq accesses
system.cpu.dcache.LoadLockedReq_avg_miss_latency::.cpu.data       123000                       # average LoadLockedReq miss latency
system.cpu.dcache.LoadLockedReq_avg_miss_latency::total       123000                       # average LoadLockedReq miss latency
system.cpu.dcache.LoadLockedReq_mshr_misses::.cpu.data            4                       # number of LoadLockedReq MSHR misses
system.cpu.dcache.LoadLockedReq_mshr_misses::total            4                       # number of LoadLockedReq MSHR misses
system.cpu.dcache.LoadLockedReq_mshr_miss_latency::.cpu.data       484000                       # number of LoadLockedReq MSHR miss cycles
system.cpu.dcache.LoadLockedReq_mshr_miss_latency::total       484000                       # number of LoadLockedReq MSHR miss cycles
system.cpu.dcache.LoadLockedReq_mshr_miss_rate::.cpu.data     0.105263                       # mshr miss rate for LoadLockedReq accesses
system.cpu.dcache.LoadLockedReq_mshr_miss_rate::total     0.105263                       # mshr miss rate for LoadLockedReq accesses
system.cpu.dcache.LoadLockedReq_avg_mshr_miss_latency::.cpu.data       121000                       # average LoadLockedReq mshr miss latency
system.cpu.dcache.LoadLockedReq_avg_mshr_miss_latency::total       121000                       # average LoadLockedReq mshr miss latency
system.cpu.dcache.StoreCondReq_hits::.cpu.data           38                       # number of StoreCondReq hits
system.cpu.dcache.StoreCondReq_hits::total           38                       # number of StoreCondReq hits
system.cpu.dcache.StoreCondReq_accesses::.cpu.data           38                       # number of StoreCondReq accesses(hits+misses)
system.cpu.dcache.StoreCondReq_accesses::total           38                       # number of StoreCondReq accesses(hits+misses)
system.cpu.dcache.power_state.pwrStateResidencyTicks::UNDEFINED 161052219000                       # Cumulative time (in ticks) in various power states
system.cpu.dcache.tags.tagsinuse          1012.571226                       # Cycle average of tags in use
system.cpu.dcache.tags.total_refs            52105031                       # Total number of references to valid blocks.
system.cpu.dcache.tags.sampled_refs            684637                       # Sample count of references to valid blocks.
system.cpu.dcache.tags.avg_refs             76.106069                       # Average number of references to valid blocks.
system.cpu.dcache.tags.warmup_cycle            223000                       # Cycle when the warmup percentage was hit.
system.cpu.dcache.tags.occ_blocks::.cpu.data  1012.571226                       # Average occupied blocks per requestor
system.cpu.dcache.tags.occ_percent::.cpu.data     0.988839                       # Average percentage of cache occupancy
system.cpu.dcache.tags.occ_percent::total     0.988839                       # Average percentage of cache occupancy
system.cpu.dcache.tags.occ_task_id_blocks::1024         1024                       # Occupied blocks per task id
system.cpu.dcache.tags.age_task_id_blocks_1024::0          150                       # Occupied blocks per task id
system.cpu.dcache.tags.age_task_id_blocks_1024::1          243                       # Occupied blocks per task id
system.cpu.dcache.tags.age_task_id_blocks_1024::2          614                       # Occupied blocks per task id
system.cpu.dcache.tags.age_task_id_blocks_1024::3           16                       # Occupied blocks per task id
system.cpu.dcache.tags.age_task_id_blocks_1024::4            1                       # Occupied blocks per task id
system.cpu.dcache.tags.occ_task_id_percent::1024            1                       # Percentage of cache occupancy per task id
system.cpu.dcache.tags.tag_accesses         104998929                       # Number of tag accesses
system.cpu.dcache.tags.data_accesses        104998929                       # Number of data accesses
system.cpu.dcache.tags.power_state.pwrStateResidencyTicks::UNDEFINED 161052219000                       # Cumulative time (in ticks) in various power states
system.cpu.dtb.instHits                             0                       # ITB inst hits
system.cpu.dtb.instMisses                           0                       # ITB inst misses
system.cpu.dtb.readHits                             0                       # DTB read hits
system.cpu.dtb.readMisses                           0                       # DTB read misses
system.cpu.dtb.writeHits                            0                       # DTB write hits
system.cpu.dtb.writeMisses                          0                       # DTB write misses
system.cpu.dtb.inserts                              0                       # Number of times an entry is inserted into the TLB
system.cpu.dtb.flushTlb                             0                       # Number of times complete TLB was flushed
system.cpu.dtb.flushTlbMva                          0                       # Number of times TLB was flushed by MVA
system.cpu.dtb.flushTlbMvaAsid                      0                       # Number of times TLB was flushed by MVA & ASID
system.cpu.dtb.flushTlbAsid                         0                       # Number of times TLB was flushed by ASID
system.cpu.dtb.flushedEntries                       0                       # Number of entries that have been flushed from TLB
system.cpu.dtb.alignFaults                          0                       # Number of TLB faults due to alignment restrictions
system.cpu.dtb.prefetchFaults                       0                       # Number of TLB faults due to prefetch
system.cpu.dtb.domainFaults                         0                       # Number of TLB faults due to domain restrictions
system.cpu.dtb.permsFaults                          0                       # Number of TLB faults due to permissions restrictions
system.cpu.dtb.readAccesses                         0                       # DTB read accesses
system.cpu.dtb.writeAccesses                        0                       # DTB write accesses
system.cpu.dtb.instAccesses                         0                       # ITB inst accesses
system.cpu.dtb.hits                                 0                       # Total TLB (inst and data) hits
system.cpu.dtb.misses                               0                       # Total TLB (inst and data) misses
system.cpu.dtb.accesses                             0                       # Total TLB (inst and data) accesses
system.cpu.dtb.stage2_mmu.stage2_tlb.instHits            0                       # ITB inst hits
system.cpu.dtb.stage2_mmu.stage2_tlb.instMisses            0                       # ITB inst misses
system.cpu.dtb.stage2_mmu.stage2_tlb.readHits            0                       # DTB read hits
system.cpu.dtb.stage2_mmu.stage2_tlb.readMisses            0                       # DTB read misses
system.cpu.dtb.stage2_mmu.stage2_tlb.writeHits            0                       # DTB write hits
system.cpu.dtb.stage2_mmu.stage2_tlb.writeMisses            0                       # DTB write misses
system.cpu.dtb.stage2_mmu.stage2_tlb.inserts            0                       # Number of times an entry is inserted into the TLB
system.cpu.dtb.stage2_mmu.stage2_tlb.flushTlb            0                       # Number of times complete TLB was flushed
system.cpu.dtb.stage2_mmu.stage2_tlb.flushTlbMva            0                       # Number of times TLB was flushed by MVA
system.cpu.dtb.stage2_mmu.stage2_tlb.flushTlbMvaAsid            0                       # Number of times TLB was flushed by MVA & ASID
system.cpu.dtb.stage2_mmu.stage2_tlb.flushTlbAsid            0                       # Number of times TLB was flushed by ASID
system.cpu.dtb.stage2_mmu.stage2_tlb.flushedEntries            0                       # Number of entries that have been flushed from TLB
system.cpu.dtb.stage2_mmu.stage2_tlb.alignFaults            0                       # Number of TLB faults due to alignment restrictions
system.cpu.dtb.stage2_mmu.stage2_tlb.prefetchFaults            0                       # Number of TLB faults due to prefetch
system.cpu.dtb.stage2_mmu.stage2_tlb.domainFaults            0                       # Number of TLB faults due to domain restrictions
system.cpu.dtb.stage2_mmu.stage2_tlb.permsFaults            0                       # Number of TLB faults due to permissions restrictions
system.cpu.dtb.stage2_mmu.stage2_tlb.readAccesses            0                       # DTB read accesses
system.cpu.dtb.stage2_mmu.stage2_tlb.writeAccesses            0                       # DTB write accesses
system.cpu.dtb.stage2_mmu.stage2_tlb.instAccesses            0                       # ITB inst accesses
system.cpu.dtb.stage2_mmu.stage2_tlb.hits            0                       # Total TLB (inst and data) hits
system.cpu.dtb.stage2_mmu.stage2_tlb.misses            0                       # Total TLB (inst and data) misses
system.cpu.dtb.stage2_mmu.stage2_tlb.accesses            0                       # Total TLB (inst and data) accesses
system.cpu.dtb.stage2_mmu.stage2_tlb.walker.walks            0                       # Table walker walks requested
system.cpu.dtb.stage2_mmu.stage2_tlb.walker.requestOrigin_Requested::Data            0                       # Table walker requests started/completed, data/inst
system.cpu.dtb.stage2_mmu.stage2_tlb.walker.requestOrigin_Requested::Inst            0                       # Table walker requests started/completed, data/inst
system.cpu.dtb.stage2_mmu.stage2_tlb.walker.requestOrigin_Requested::total            0                       # Table walker requests started/completed, data/inst
system.cpu.dtb.stage2_mmu.stage2_tlb.walker.requestOrigin_Completed::Data            0                       # Table walker requests started/completed, data/inst
system.cpu.dtb.stage2_mmu.stage2_tlb.walker.requestOrigin_Completed::Inst            0                       # Table walker requests started/completed, data/inst
system.cpu.dtb.stage2_mmu.stage2_tlb.walker.requestOrigin_Completed::total            0                       # Table walker requests started/completed, data/inst
system.cpu.dtb.stage2_mmu.stage2_tlb.walker.requestOrigin::total            0                       # Table walker requests started/completed, data/inst
system.cpu.dtb.stage2_mmu.stage2_tlb.walker.power_state.pwrStateResidencyTicks::UNDEFINED 161052219000                       # Cumulative time (in ticks) in various power states
system.cpu.dtb.walker.walks                         0                       # Table walker walks requested
system.cpu.dtb.walker.requestOrigin_Requested::Data            0                       # Table walker requests started/completed, data/inst
system.cpu.dtb.walker.requestOrigin_Requested::Inst            0                       # Table walker requests started/completed, data/inst
system.cpu.dtb.walker.requestOrigin_Requested::total            0                       # Table walker requests started/completed, data/inst
system.cpu.dtb.walker.requestOrigin_Completed::Data            0                       # Table walker requests started/completed, data/inst
system.cpu.dtb.walker.requestOrigin_Completed::Inst            0                       # Table walker requests started/completed, data/inst
system.cpu.dtb.walker.requestOrigin_Completed::total            0                       # Table walker requests started/completed, data/inst
system.cpu.dtb.walker.requestOrigin::total            0                       # Table walker requests started/completed, data/inst
system.cpu.dtb.walker.power_state.pwrStateResidencyTicks::UNDEFINED 161052219000                       # Cumulative time (in ticks) in various power states
system.cpu.fetch2.intInstructions            42703646                       # Number of integer instructions successfully decoded
system.cpu.fetch2.fpInstructions                    0                       # Number of floating point instructions successfully decoded
system.cpu.fetch2.vecInstructions                   0                       # Number of SIMD instructions successfully decoded
system.cpu.fetch2.loadInstructions           43555084                       # Number of memory load instructions successfully decoded
system.cpu.fetch2.storeInstructions          11057161                       # Number of memory store instructions successfully decoded
system.cpu.fetch2.amoInstructions                   0                       # Number of memory atomic instructions successfully decoded
system.cpu.icache.demand_hits::.cpu.inst     10235500                       # number of demand (read+write) hits
system.cpu.icache.demand_hits::total         10235500                       # number of demand (read+write) hits
system.cpu.icache.overall_hits::.cpu.inst     10235500                       # number of overall hits
system.cpu.icache.overall_hits::total        10235500                       # number of overall hits
system.cpu.icache.demand_misses::.cpu.inst          773                       # number of demand (read+write) misses
system.cpu.icache.demand_misses::total            773                       # number of demand (read+write) misses
system.cpu.icache.overall_misses::.cpu.inst          773                       # number of overall misses
system.cpu.icache.overall_misses::total           773                       # number of overall misses
system.cpu.icache.demand_miss_latency::.cpu.inst     72508000                       # number of demand (read+write) miss cycles
system.cpu.icache.demand_miss_latency::total     72508000                       # number of demand (read+write) miss cycles
system.cpu.icache.overall_miss_latency::.cpu.inst     72508000                       # number of overall miss cycles
system.cpu.icache.overall_miss_latency::total     72508000                       # number of overall miss cycles
system.cpu.icache.demand_accesses::.cpu.inst     10236273                       # number of demand (read+write) accesses
system.cpu.icache.demand_accesses::total     10236273                       # number of demand (read+write) accesses
system.cpu.icache.overall_accesses::.cpu.inst     10236273                       # number of overall (read+write) accesses
system.cpu.icache.overall_accesses::total     10236273                       # number of overall (read+write) accesses
system.cpu.icache.demand_miss_rate::.cpu.inst     0.000076                       # miss rate for demand accesses
system.cpu.icache.demand_miss_rate::total     0.000076                       # miss rate for demand accesses
system.cpu.icache.overall_miss_rate::.cpu.inst     0.000076                       # miss rate for overall accesses
system.cpu.icache.overall_miss_rate::total     0.000076                       # miss rate for overall accesses
system.cpu.icache.demand_avg_miss_latency::.cpu.inst 93800.776197                       # average overall miss latency
system.cpu.icache.demand_avg_miss_latency::total 93800.776197                       # average overall miss latency
system.cpu.icache.overall_avg_miss_latency::.cpu.inst 93800.776197                       # average overall miss latency
system.cpu.icache.overall_avg_miss_latency::total 93800.776197                       # average overall miss latency
system.cpu.icache.blocked_cycles::no_mshrs            0                       # number of cycles access was blocked
system.cpu.icache.blocked_cycles::no_targets            0                       # number of cycles access was blocked
system.cpu.icache.blocked::no_mshrs                 0                       # number of cycles access was blocked
system.cpu.icache.blocked::no_targets               0                       # number of cycles access was blocked
system.cpu.icache.avg_blocked_cycles::no_mshrs          nan                       # average number of cycles each access was blocked
system.cpu.icache.avg_blocked_cycles::no_targets          nan                       # average number of cycles each access was blocked
system.cpu.icache.writebacks::.writebacks          331                       # number of writebacks
system.cpu.icache.writebacks::total               331                       # number of writebacks
system.cpu.icache.demand_mshr_misses::.cpu.inst          773                       # number of demand (read+write) MSHR misses
system.cpu.icache.demand_mshr_misses::total          773                       # number of demand (read+write) MSHR misses
system.cpu.icache.overall_mshr_misses::.cpu.inst          773                       # number of overall MSHR misses
system.cpu.icache.overall_mshr_misses::total          773                       # number of overall MSHR misses
system.cpu.icache.demand_mshr_miss_latency::.cpu.inst     70962000                       # number of demand (read+write) MSHR miss cycles
system.cpu.icache.demand_mshr_miss_latency::total     70962000                       # number of demand (read+write) MSHR miss cycles
system.cpu.icache.overall_mshr_miss_latency::.cpu.inst     70962000                       # number of overall MSHR miss cycles
system.cpu.icache.overall_mshr_miss_latency::total     70962000                       # number of overall MSHR miss cycles
system.cpu.icache.demand_mshr_miss_rate::.cpu.inst     0.000076                       # mshr miss rate for demand accesses
system.cpu.icache.demand_mshr_miss_rate::total     0.000076                       # mshr miss rate for demand accesses
system.cpu.icache.overall_mshr_miss_rate::.cpu.inst     0.000076                       # mshr miss rate for overall accesses
system.cpu.icache.overall_mshr_miss_rate::total     0.000076                       # mshr miss rate for overall accesses
system.cpu.icache.demand_avg_mshr_miss_latency::.cpu.inst 91800.776197                       # average overall mshr miss latency
system.cpu.icache.demand_avg_mshr_miss_latency::total 91800.776197                       # average overall mshr miss latency
system.cpu.icache.overall_avg_mshr_miss_latency::.cpu.inst 91800.776197                       # average overall mshr miss latency
system.cpu.icache.overall_avg_mshr_miss_latency::total 91800.776197                       # average overall mshr miss latency
system.cpu.icache.replacements                    331                       # number of replacements
system.cpu.icache.ReadReq_hits::.cpu.inst     10235500                       # number of ReadReq hits
system.cpu.icache.ReadReq_hits::total        10235500                       # number of ReadReq hits
system.cpu.icache.ReadReq_misses::.cpu.inst          773                       # number of ReadReq misses
system.cpu.icache.ReadReq_misses::total           773                       # number of ReadReq misses
system.cpu.icache.ReadReq_miss_latency::.cpu.inst     72508000                       # number of ReadReq miss cycles
system.cpu.icache.ReadReq_miss_latency::total     72508000                       # number of ReadReq miss cycles
system.cpu.icache.ReadReq_accesses::.cpu.inst     10236273                       # number of ReadReq accesses(hits+misses)
system.cpu.icache.ReadReq_accesses::total     10236273                       # number of ReadReq accesses(hits+misses)
system.cpu.icache.ReadReq_miss_rate::.cpu.inst     0.000076                       # miss rate for ReadReq accesses
system.cpu.icache.ReadReq_miss_rate::total     0.000076                       # miss rate for ReadReq accesses
system.cpu.icache.ReadReq_avg_miss_latency::.cpu.inst 93800.776197                       # average ReadReq miss latency
system.cpu.icache.ReadReq_avg_miss_latency::total 93800.776197                       # average ReadReq miss latency
system.cpu.icache.ReadReq_mshr_misses::.cpu.inst          773                       # number of ReadReq MSHR misses
system.cpu.icache.ReadReq_mshr_misses::total          773                       # number of ReadReq MSHR misses
system.cpu.icache.ReadReq_mshr_miss_latency::.cpu.inst     70962000                       # number of ReadReq MSHR miss cycles
system.cpu.icache.ReadReq_mshr_miss_latency::total     70962000                       # number of ReadReq MSHR miss cycles
system.cpu.icache.ReadReq_mshr_miss_rate::.cpu.inst     0.000076                       # mshr miss rate for ReadReq accesses
system.cpu.icache.ReadReq_mshr_miss_rate::total     0.000076                       # mshr miss rate for ReadReq accesses
system.cpu.icache.ReadReq_avg_mshr_miss_latency::.cpu.inst 91800.776197                       # average ReadReq mshr miss latency
system.cpu.icache.ReadReq_avg_mshr_miss_latency::total 91800.776197                       # average ReadReq mshr miss latency
system.cpu.icache.power_state.pwrStateResidencyTicks::UNDEFINED 161052219000                       # Cumulative time (in ticks) in various power states
system.cpu.icache.tags.tagsinuse           364.139419                       # Cycle average of tags in use
system.cpu.icache.tags.total_refs            10236273                       # Total number of references to valid blocks.
system.cpu.icache.tags.sampled_refs               773                       # Sample count of references to valid blocks.
system.cpu.icache.tags.avg_refs          13242.267788                       # Average number of references to valid blocks.
system.cpu.icache.tags.warmup_cycle            108000                       # Cycle when the warmup percentage was hit.
system.cpu.icache.tags.occ_blocks::.cpu.inst   364.139419                       # Average occupied blocks per requestor
system.cpu.icache.tags.occ_percent::.cpu.inst     0.711210                       # Average percentage of cache occupancy
system.cpu.icache.tags.occ_percent::total     0.711210                       # Average percentage of cache occupancy
system.cpu.icache.tags.occ_task_id_blocks::1024          442                       # Occupied blocks per task id
system.cpu.icache.tags.age_task_id_blocks_1024::4          442                       # Occupied blocks per task id
system.cpu.icache.tags.occ_task_id_percent::1024     0.863281                       # Percentage of cache occupancy per task id
system.cpu.icache.tags.tag_accesses          20473319                       # Number of tag accesses
system.cpu.icache.tags.data_accesses         20473319                       # Number of data accesses
system.cpu.icache.tags.power_state.pwrStateResidencyTicks::UNDEFINED 161052219000                       # Cumulative time (in ticks) in various power states
system.cpu.itb.instHits                             0                       # ITB inst hits
system.cpu.itb.instMisses                           0                       # ITB inst misses
system.cpu.itb.readHits                             0                       # DTB read hits
system.cpu.itb.readMisses                           0                       # DTB read misses
system.cpu.itb.writeHits                            0                       # DTB write hits
system.cpu.itb.writeMisses                          0                       # DTB write misses
system.cpu.itb.inserts                              0                       # Number of times an entry is inserted into the TLB
system.cpu.itb.flushTlb                             0                       # Number of times complete TLB was flushed
system.cpu.itb.flushTlbMva                          0                       # Number of times TLB was flushed by MVA
system.cpu.itb.flushTlbMvaAsid                      0                       # Number of times TLB was flushed by MVA & ASID
system.cpu.itb.flushTlbAsid                         0                       # Number of times TLB was flushed by ASID
system.cpu.itb.flushedEntries                       0                       # Number of entries that have been flushed from TLB
system.cpu.itb.alignFaults                          0                       # Number of TLB faults due to alignment restrictions
system.cpu.itb.prefetchFaults                       0                       # Number of TLB faults due to prefetch
system.cpu.itb.domainFaults                         0                       # Number of TLB faults due to domain restrictions
system.cpu.itb.permsFaults                          0                       # Number of TLB faults due to permissions restrictions
system.cpu.itb.readAccesses                         0                       # DTB read accesses
system.cpu.itb.writeAccesses                        0                       # DTB write accesses
system.cpu.itb.instAccesses                         0                       # ITB inst accesses
system.cpu.itb.hits                                 0                       # Total TLB (inst and data) hits
system.cpu.itb.misses                               0                       # Total TLB (inst and data) misses
system.cpu.itb.accesses                             0                       # Total TLB (inst and data) accesses
system.cpu.itb.stage2_mmu.stage2_tlb.instHits            0                       # ITB inst hits
system.cpu.itb.stage2_mmu.stage2_tlb.instMisses            0                       # ITB inst misses
system.cpu.itb.stage2_mmu.stage2_tlb.readHits            0                       # DTB read hits
system.cpu.itb.stage2_mmu.stage2_tlb.readMisses            0                       # DTB read misses
system.cpu.itb.stage2_mmu.stage2_tlb.writeHits            0                       # DTB write hits
system.cpu.itb.stage2_mmu.stage2_tlb.writeMisses            0                       # DTB write misses
system.cpu.itb.stage2_mmu.stage2_tlb.inserts            0                       # Number of times an entry is inserted into the TLB
system.cpu.itb.stage2_mmu.stage2_tlb.flushTlb            0                       # Number of times complete TLB was flushed
system.cpu.itb.stage2_mmu.stage2_tlb.flushTlbMva            0                       # Number of times TLB was flushed by MVA
system.cpu.itb.stage2_mmu.stage2_tlb.flushTlbMvaAsid            0                       # Number of times TLB was flushed by MVA & ASID
system.cpu.itb.stage2_mmu.stage2_tlb.flushTlbAsid            0                       # Number of times TLB was flushed by ASID
system.cpu.itb.stage2_mmu.stage2_tlb.flushedEntries            0                       # Number of entries that have been flushed from TLB
system.cpu.itb.stage2_mmu.stage2_tlb.alignFaults            0                       # Number of TLB faults due to alignment restrictions
system.cpu.itb.stage2_mmu.stage2_tlb.prefetchFaults            0                       # Number of TLB faults due to prefetch
system.cpu.itb.stage2_mmu.stage2_tlb.domainFaults            0                       # Number of TLB faults due to domain restrictions
system.cpu.itb.stage2_mmu.stage2_tlb.permsFaults            0                       # Number of TLB faults due to permissions restrictions
system.cpu.itb.stage2_mmu.stage2_tlb.readAccesses            0                       # DTB read accesses
system.cpu.itb.stage2_mmu.stage2_tlb.writeAccesses            0                       # DTB write accesses
system.cpu.itb.stage2_mmu.stage2_tlb.instAccesses            0                       # ITB inst accesses
system.cpu.itb.stage2_mmu.stage2_tlb.hits            0                       # Total TLB (inst and data) hits
system.cpu.itb.stage2_mmu.stage2_tlb.misses            0                       # Total TLB (inst and data) misses
system.cpu.itb.stage2_mmu.stage2_tlb.accesses            0                       # Total TLB (inst and data) accesses
system.cpu.itb.stage2_mmu.stage2_tlb.walker.walks            0                       # Table walker walks requested
system.cpu.itb.stage2_mmu.stage2_tlb.walker.requestOrigin_Requested::Data            0                       # Table walker requests started/completed, data/inst
system.cpu.itb.stage2_mmu.stage2_tlb.walker.requestOrigin_Requested::Inst            0                       # Table walker requests started/completed, data/inst
system.cpu.itb.stage2_mmu.stage2_tlb.walker.requestOrigin_Requested::total            0                       # Table walker requests started/completed, data/inst
system.cpu.itb.stage2_mmu.stage2_tlb.walker.requestOrigin_Completed::Data            0                       # Table walker requests started/completed, data/inst
system.cpu.itb.stage2_mmu.stage2_tlb.walker.requestOrigin_Completed::Inst            0                       # Table walker requests started/completed, data/inst
system.cpu.itb.stage2_mmu.stage2_tlb.walker.requestOrigin_Completed::total            0                       # Table walker requests started/completed, data/inst
system.cpu.itb.stage2_mmu.stage2_tlb.walker.requestOrigin::total            0                       # Table walker requests started/completed, data/inst
system.cpu.itb.stage2_mmu.stage2_tlb.walker.power_state.pwrStateResidencyTicks::UNDEFINED 161052219000                       # Cumulative time (in ticks) in various power states
system.cpu.itb.walker.walks                         0                       # Table walker walks requested
system.cpu.itb.walker.requestOrigin_Requested::Data            0                       # Table walker requests started/completed, data/inst
system.cpu.itb.walker.requestOrigin_Requested::Inst            0                       # Table walker requests started/completed, data/inst
system.cpu.itb.walker.requestOrigin_Requested::total            0                       # Table walker requests started/completed, data/inst
system.cpu.itb.walker.requestOrigin_Completed::Data            0                       # Table walker requests started/completed, data/inst
system.cpu.itb.walker.requestOrigin_Completed::Inst            0                       # Table walker requests started/completed, data/inst
system.cpu.itb.walker.requestOrigin_Completed::total            0                       # Table walker requests started/completed, data/inst
system.cpu.itb.walker.requestOrigin::total            0                       # Table walker requests started/completed, data/inst
system.cpu.itb.walker.power_state.pwrStateResidencyTicks::UNDEFINED 161052219000                       # Cumulative time (in ticks) in various power states
system.cpu.power_state.pwrStateResidencyTicks::ON 161052219000                       # Cumulative time (in ticks) in various power states
system.cpu.thread_0.numInsts                100000000                       # Number of Instructions committed
system.cpu.thread_0.numOps                  100199496                       # Number of Ops committed
system.cpu.thread_0.numMemRefs                      0                       # Number of Memory References
system.cpu_clk_domain.clock                      1000                       # Clock period in ticks
system.cpu_voltage_domain.voltage                   1                       # Voltage in Volts
system.l2.demand_hits::.cpu.inst                  102                       # number of demand (read+write) hits
system.l2.demand_hits::.cpu.data               477713                       # number of demand (read+write) hits
system.l2.demand_hits::total                   477815                       # number of demand (read+write) hits
system.l2.overall_hits::.cpu.inst                 102                       # number of overall hits
system.l2.overall_hits::.cpu.data              477713                       # number of overall hits
system.l2.overall_hits::total                  477815                       # number of overall hits
system.l2.demand_misses::.cpu.inst                671                       # number of demand (read+write) misses
system.l2.demand_misses::.cpu.data             206925                       # number of demand (read+write) misses
system.l2.demand_misses::total                 207596                       # number of demand (read+write) misses
system.l2.overall_misses::.cpu.inst               671                       # number of overall misses
system.l2.overall_misses::.cpu.data            206925                       # number of overall misses
system.l2.overall_misses::total                207596                       # number of overall misses
system.l2.demand_miss_latency::.cpu.inst     66462000                       # number of demand (read+write) miss cycles
system.l2.demand_miss_latency::.cpu.data  21499596000                       # number of demand (read+write) miss cycles
system.l2.demand_miss_latency::total      21566058000                       # number of demand (read+write) miss cycles
system.l2.overall_miss_latency::.cpu.inst     66462000                       # number of overall miss cycles
system.l2.overall_miss_latency::.cpu.data  21499596000                       # number of overall miss cycles
system.l2.overall_miss_latency::total     21566058000                       # number of overall miss cycles
system.l2.demand_accesses::.cpu.inst              773                       # number of demand (read+write) accesses
system.l2.demand_accesses::.cpu.data           684638                       # number of demand (read+write) accesses
system.l2.demand_accesses::total               685411                       # number of demand (read+write) accesses
system.l2.overall_accesses::.cpu.inst             773                       # number of overall (read+write) accesses
system.l2.overall_accesses::.cpu.data          684638                       # number of overall (read+write) accesses
system.l2.overall_accesses::total              685411                       # number of overall (read+write) accesses
system.l2.demand_miss_rate::.cpu.inst        0.868047                       # miss rate for demand accesses
system.l2.demand_miss_rate::.cpu.data        0.302240                       # miss rate for demand accesses
system.l2.demand_miss_rate::total            0.302878                       # miss rate for demand accesses
system.l2.overall_miss_rate::.cpu.inst       0.868047                       # miss rate for overall accesses
system.l2.overall_miss_rate::.cpu.data       0.302240                       # miss rate for overall accesses
system.l2.overall_miss_rate::total           0.302878                       # miss rate for overall accesses
system.l2.demand_avg_miss_latency::.cpu.inst 99049.180328                       # average overall miss latency
system.l2.demand_avg_miss_latency::.cpu.data 103900.427691                       # average overall miss latency
system.l2.demand_avg_miss_latency::total 103884.747298                       # average overall miss latency
system.l2.overall_avg_miss_latency::.cpu.inst 99049.180328                       # average overall miss latency
system.l2.overall_avg_miss_latency::.cpu.data 103900.427691                       # average overall miss latency
system.l2.overall_avg_miss_latency::total 103884.747298                       # average overall miss latency
system.l2.blocked_cycles::no_mshrs                  0                       # number of cycles access was blocked
system.l2.blocked_cycles::no_targets                0                       # number of cycles access was blocked
system.l2.blocked::no_mshrs                         0                       # number of cycles access was blocked
system.l2.blocked::no_targets                       0                       # number of cycles access was blocked
system.l2.avg_blocked_cycles::no_mshrs            nan                       # average number of cycles each access was blocked
system.l2.avg_blocked_cycles::no_targets          nan                       # average number of cycles each access was blocked
system.l2.writebacks::.writebacks              113853                       # number of writebacks
system.l2.writebacks::total                    113853                       # number of writebacks
system.l2.demand_mshr_hits::.cpu.data               5                       # number of demand (read+write) MSHR hits
system.l2.demand_mshr_hits::total                   5                       # number of demand (read+write) MSHR hits
system.l2.overall_mshr_hits::.cpu.data              5                       # number of overall MSHR hits
system.l2.overall_mshr_hits::total                  5                       # number of overall MSHR hits
system.l2.demand_mshr_misses::.cpu.inst           671                       # number of demand (read+write) MSHR misses
system.l2.demand_mshr_misses::.cpu.data        206920                       # number of demand (read+write) MSHR misses
system.l2.demand_mshr_misses::total            207591                       # number of demand (read+write) MSHR misses
system.l2.overall_mshr_misses::.cpu.inst          671                       # number of overall MSHR misses
system.l2.overall_mshr_misses::.cpu.data       206920                       # number of overall MSHR misses
system.l2.overall_mshr_misses::total           207591                       # number of overall MSHR misses
system.l2.demand_mshr_miss_latency::.cpu.inst     53042000                       # number of demand (read+write) MSHR miss cycles
system.l2.demand_mshr_miss_latency::.cpu.data  17360805000                       # number of demand (read+write) MSHR miss cycles
system.l2.demand_mshr_miss_latency::total  17413847000                       # number of demand (read+write) MSHR miss cycles
system.l2.overall_mshr_miss_latency::.cpu.inst     53042000                       # number of overall MSHR miss cycles
system.l2.overall_mshr_miss_latency::.cpu.data  17360805000                       # number of overall MSHR miss cycles
system.l2.overall_mshr_miss_latency::total  17413847000                       # number of overall MSHR miss cycles
system.l2.demand_mshr_miss_rate::.cpu.inst     0.868047                       # mshr miss rate for demand accesses
system.l2.demand_mshr_miss_rate::.cpu.data     0.302233                       # mshr miss rate for demand accesses
system.l2.demand_mshr_miss_rate::total       0.302871                       # mshr miss rate for demand accesses
system.l2.overall_mshr_miss_rate::.cpu.inst     0.868047                       # mshr miss rate for overall accesses
system.l2.overall_mshr_miss_rate::.cpu.data     0.302233                       # mshr miss rate for overall accesses
system.l2.overall_mshr_miss_rate::total      0.302871                       # mshr miss rate for overall accesses
system.l2.demand_avg_mshr_miss_latency::.cpu.inst 79049.180328                       # average overall mshr miss latency
system.l2.demand_avg_mshr_miss_latency::.cpu.data 83901.048714                       # average overall mshr miss latency
system.l2.demand_avg_mshr_miss_latency::total 83885.365936                       # average overall mshr miss latency
system.l2.overall_avg_mshr_miss_latency::.cpu.inst 79049.180328                       # average overall mshr miss latency
system.l2.overall_avg_mshr_miss_latency::.cpu.data 83901.048714                       # average overall mshr miss latency
system.l2.overall_avg_mshr_miss_latency::total 83885.365936                       # average overall mshr miss latency
system.l2.replacements                         175109                       # number of replacements
system.l2.WritebackDirty_hits::.writebacks       603332                       # number of WritebackDirty hits
system.l2.WritebackDirty_hits::total           603332                       # number of WritebackDirty hits
system.l2.WritebackDirty_accesses::.writebacks       603332                       # number of WritebackDirty accesses(hits+misses)
system.l2.WritebackDirty_accesses::total       603332                       # number of WritebackDirty accesses(hits+misses)
system.l2.WritebackClean_hits::.writebacks          326                       # number of WritebackClean hits
system.l2.WritebackClean_hits::total              326                       # number of WritebackClean hits
system.l2.WritebackClean_accesses::.writebacks          326                       # number of WritebackClean accesses(hits+misses)
system.l2.WritebackClean_accesses::total          326                       # number of WritebackClean accesses(hits+misses)
system.l2.CleanEvict_mshr_misses::.writebacks         3306                       # number of CleanEvict MSHR misses
system.l2.CleanEvict_mshr_misses::total          3306                       # number of CleanEvict MSHR misses
system.l2.CleanEvict_mshr_miss_rate::.writebacks          inf                       # mshr miss rate for CleanEvict accesses
system.l2.CleanEvict_mshr_miss_rate::total          inf                       # mshr miss rate for CleanEvict accesses
system.l2.ReadExReq_hits::.cpu.data            149742                       # number of ReadExReq hits
system.l2.ReadExReq_hits::total                149742                       # number of ReadExReq hits
system.l2.ReadExReq_misses::.cpu.data          137593                       # number of ReadExReq misses
system.l2.ReadExReq_misses::total              137593                       # number of ReadExReq misses
system.l2.ReadExReq_miss_latency::.cpu.data  14593162000                       # number of ReadExReq miss cycles
system.l2.ReadExReq_miss_latency::total   14593162000                       # number of ReadExReq miss cycles
system.l2.ReadExReq_accesses::.cpu.data        287335                       # number of ReadExReq accesses(hits+misses)
system.l2.ReadExReq_accesses::total            287335                       # number of ReadExReq accesses(hits+misses)
system.l2.ReadExReq_miss_rate::.cpu.data     0.478859                       # miss rate for ReadExReq accesses
system.l2.ReadExReq_miss_rate::total         0.478859                       # miss rate for ReadExReq accesses
system.l2.ReadExReq_avg_miss_latency::.cpu.data 106060.351907                       # average ReadExReq miss latency
system.l2.ReadExReq_avg_miss_latency::total 106060.351907                       # average ReadExReq miss latency
system.l2.ReadExReq_mshr_misses::.cpu.data       137593                       # number of ReadExReq MSHR misses
system.l2.ReadExReq_mshr_misses::total         137593                       # number of ReadExReq MSHR misses
system.l2.ReadExReq_mshr_miss_latency::.cpu.data  11841322000                       # number of ReadExReq MSHR miss cycles
system.l2.ReadExReq_mshr_miss_latency::total  11841322000                       # number of ReadExReq MSHR miss cycles
system.l2.ReadExReq_mshr_miss_rate::.cpu.data     0.478859                       # mshr miss rate for ReadExReq accesses
system.l2.ReadExReq_mshr_miss_rate::total     0.478859                       # mshr miss rate for ReadExReq accesses
system.l2.ReadExReq_avg_mshr_miss_latency::.cpu.data 86060.497264                       # average ReadExReq mshr miss latency
system.l2.ReadExReq_avg_mshr_miss_latency::total 86060.497264                       # average ReadExReq mshr miss latency
system.l2.ReadCleanReq_hits::.cpu.inst            102                       # number of ReadCleanReq hits
system.l2.ReadCleanReq_hits::total                102                       # number of ReadCleanReq hits
system.l2.ReadCleanReq_misses::.cpu.inst          671                       # number of ReadCleanReq misses
system.l2.ReadCleanReq_misses::total              671                       # number of ReadCleanReq misses
system.l2.ReadCleanReq_miss_latency::.cpu.inst     66462000                       # number of ReadCleanReq miss cycles
system.l2.ReadCleanReq_miss_latency::total     66462000                       # number of ReadCleanReq miss cycles
system.l2.ReadCleanReq_accesses::.cpu.inst          773                       # number of ReadCleanReq accesses(hits+misses)
system.l2.ReadCleanReq_accesses::total            773                       # number of ReadCleanReq accesses(hits+misses)
system.l2.ReadCleanReq_miss_rate::.cpu.inst     0.868047                       # miss rate for ReadCleanReq accesses
system.l2.ReadCleanReq_miss_rate::total      0.868047                       # miss rate for ReadCleanReq accesses
system.l2.ReadCleanReq_avg_miss_latency::.cpu.inst 99049.180328                       # average ReadCleanReq miss latency
system.l2.ReadCleanReq_avg_miss_latency::total 99049.180328                       # average ReadCleanReq miss latency
system.l2.ReadCleanReq_mshr_misses::.cpu.inst          671                       # number of ReadCleanReq MSHR misses
system.l2.ReadCleanReq_mshr_misses::total          671                       # number of ReadCleanReq MSHR misses
system.l2.ReadCleanReq_mshr_miss_latency::.cpu.inst     53042000                       # number of ReadCleanReq MSHR miss cycles
system.l2.ReadCleanReq_mshr_miss_latency::total     53042000                       # number of ReadCleanReq MSHR miss cycles
system.l2.ReadCleanReq_mshr_miss_rate::.cpu.inst     0.868047                       # mshr miss rate for ReadCleanReq accesses
system.l2.ReadCleanReq_mshr_miss_rate::total     0.868047                       # mshr miss rate for ReadCleanReq accesses
system.l2.ReadCleanReq_avg_mshr_miss_latency::.cpu.inst 79049.180328                       # average ReadCleanReq mshr miss latency
system.l2.ReadCleanReq_avg_mshr_miss_latency::total 79049.180328                       # average ReadCleanReq mshr miss latency
system.l2.ReadSharedReq_hits::.cpu.data        327971                       # number of ReadSharedReq hits
system.l2.ReadSharedReq_hits::total            327971                       # number of ReadSharedReq hits
system.l2.ReadSharedReq_misses::.cpu.data        69332                       # number of ReadSharedReq misses
system.l2.ReadSharedReq_misses::total           69332                       # number of ReadSharedReq misses
system.l2.ReadSharedReq_miss_latency::.cpu.data   6906434000                       # number of ReadSharedReq miss cycles
system.l2.ReadSharedReq_miss_latency::total   6906434000                       # number of ReadSharedReq miss cycles
system.l2.ReadSharedReq_accesses::.cpu.data       397303                       # number of ReadSharedReq accesses(hits+misses)
system.l2.ReadSharedReq_accesses::total        397303                       # number of ReadSharedReq accesses(hits+misses)
system.l2.ReadSharedReq_miss_rate::.cpu.data     0.174507                       # miss rate for ReadSharedReq accesses
system.l2.ReadSharedReq_miss_rate::total     0.174507                       # miss rate for ReadSharedReq accesses
system.l2.ReadSharedReq_avg_miss_latency::.cpu.data 99613.944499                       # average ReadSharedReq miss latency
system.l2.ReadSharedReq_avg_miss_latency::total 99613.944499                       # average ReadSharedReq miss latency
system.l2.ReadSharedReq_mshr_hits::.cpu.data            5                       # number of ReadSharedReq MSHR hits
system.l2.ReadSharedReq_mshr_hits::total            5                       # number of ReadSharedReq MSHR hits
system.l2.ReadSharedReq_mshr_misses::.cpu.data        69327                       # number of ReadSharedReq MSHR misses
system.l2.ReadSharedReq_mshr_misses::total        69327                       # number of ReadSharedReq MSHR misses
system.l2.ReadSharedReq_mshr_miss_latency::.cpu.data   5519483000                       # number of ReadSharedReq MSHR miss cycles
system.l2.ReadSharedReq_mshr_miss_latency::total   5519483000                       # number of ReadSharedReq MSHR miss cycles
system.l2.ReadSharedReq_mshr_miss_rate::.cpu.data     0.174494                       # mshr miss rate for ReadSharedReq accesses
system.l2.ReadSharedReq_mshr_miss_rate::total     0.174494                       # mshr miss rate for ReadSharedReq accesses
system.l2.ReadSharedReq_avg_mshr_miss_latency::.cpu.data 79615.200427                       # average ReadSharedReq mshr miss latency
system.l2.ReadSharedReq_avg_mshr_miss_latency::total 79615.200427                       # average ReadSharedReq mshr miss latency
system.l2.power_state.pwrStateResidencyTicks::UNDEFINED 161052219000                       # Cumulative time (in ticks) in various power states
system.l2.tags.tagsinuse                 32151.824410                       # Cycle average of tags in use
system.l2.tags.total_refs                     1365845                       # Total number of references to valid blocks.
system.l2.tags.sampled_refs                    207877                       # Sample count of references to valid blocks.
system.l2.tags.avg_refs                      6.570448                       # Average number of references to valid blocks.
system.l2.tags.warmup_cycle                     87000                       # Cycle when the warmup percentage was hit.
system.l2.tags.occ_blocks::.writebacks      62.270624                       # Average occupied blocks per requestor
system.l2.tags.occ_blocks::.cpu.inst        78.990981                       # Average occupied blocks per requestor
system.l2.tags.occ_blocks::.cpu.data     32010.562805                       # Average occupied blocks per requestor
system.l2.tags.occ_percent::.writebacks      0.001900                       # Average percentage of cache occupancy
system.l2.tags.occ_percent::.cpu.inst        0.002411                       # Average percentage of cache occupancy
system.l2.tags.occ_percent::.cpu.data        0.976885                       # Average percentage of cache occupancy
system.l2.tags.occ_percent::total            0.981196                       # Average percentage of cache occupancy
system.l2.tags.occ_task_id_blocks::1024         32768                       # Occupied blocks per task id
system.l2.tags.age_task_id_blocks_1024::0           66                       # Occupied blocks per task id
system.l2.tags.age_task_id_blocks_1024::1           33                       # Occupied blocks per task id
system.l2.tags.age_task_id_blocks_1024::2          655                       # Occupied blocks per task id
system.l2.tags.age_task_id_blocks_1024::3         8063                       # Occupied blocks per task id
system.l2.tags.age_task_id_blocks_1024::4        23951                       # Occupied blocks per task id
system.l2.tags.occ_task_id_percent::1024            1                       # Percentage of cache occupancy per task id
system.l2.tags.tag_accesses                   2946191                       # Number of tag accesses
system.l2.tags.data_accesses                  2946191                       # Number of data accesses
system.l2.tags.power_state.pwrStateResidencyTicks::UNDEFINED 161052219000                       # Cumulative time (in ticks) in various power states
system.mem_ctrls.avgPriority_.writebacks::samples    113853.00                       # Average QoS priority value for accepted requests
system.mem_ctrls.avgPriority_.cpu.inst::samples       671.00                       # Average QoS priority value for accepted requests
system.mem_ctrls.avgPriority_.cpu.data::samples    206850.00                       # Average QoS priority value for accepted requests
system.mem_ctrls.priorityMinLatency      0.000000018750                       # per QoS priority minimum request to response latency (s)
system.mem_ctrls.priorityMaxLatency      0.012049838500                       # per QoS priority maximum request to response latency (s)
system.mem_ctrls.numReadWriteTurnArounds         6752                       # Number of turnarounds from READ to WRITE
system.mem_ctrls.numWriteReadTurnArounds         6752                       # Number of turnarounds from WRITE to READ
system.mem_ctrls.numStayReadState              561649                       # Number of times bus staying in READ state
system.mem_ctrls.numStayWriteState             107216                       # Number of times bus staying in WRITE state
system.mem_ctrls.readReqs                      207590                       # Number of read requests accepted
system.mem_ctrls.writeReqs                     113853                       # Number of write requests accepted
system.mem_ctrls.readBursts                    207590                       # Number of controller read bursts, including those serviced by the write queue
system.mem_ctrls.writeBursts                   113853                       # Number of controller write bursts, including those merged in the write queue
system.mem_ctrls.servicedByWrQ                     69                       # Number of controller read bursts serviced by the write queue
system.mem_ctrls.mergedWrBursts                     0                       # Number of controller write bursts merged with an existing one
system.mem_ctrls.neitherReadNorWriteReqs            0                       # Number of requests that are neither read nor write
system.mem_ctrls.avgRdQLen                       1.04                       # Average read queue length when enqueuing
system.mem_ctrls.avgWrQLen                      24.58                       # Average write queue length when enqueuing
system.mem_ctrls.numRdRetry                         0                       # Number of times read queue was full causing retry
system.mem_ctrls.numWrRetry                         0                       # Number of times write queue was full causing retry
system.mem_ctrls.readPktSize::0                     0                       # Read request sizes (log2)
system.mem_ctrls.readPktSize::1                     0                       # Read request sizes (log2)
system.mem_ctrls.readPktSize::2                     0                       # Read request sizes (log2)
system.mem_ctrls.readPktSize::3                     0                       # Read request sizes (log2)
[...]
system.mem_ctrls.dram.bw_write::.writebacks     45243661                       # Write bandwidth from this memory (bytes/s)
system.mem_ctrls.dram.bw_write::total        45243661                       # Write bandwidth from this memory (bytes/s)
system.mem_ctrls.dram.bw_total::.writebacks     45243661                       # Total bandwidth to/from this memory (bytes/s)
system.mem_ctrls.dram.bw_total::.cpu.inst       266646                       # Total bandwidth to/from this memory (bytes/s)
system.mem_ctrls.dram.bw_total::.cpu.data     82226846                       # Total bandwidth to/from this memory (bytes/s)
system.mem_ctrls.dram.bw_total::total       127737153                       # Total bandwidth to/from this memory (bytes/s)
system.mem_ctrls.dram.readBursts               207521                       # Number of DRAM read bursts
system.mem_ctrls.dram.writeBursts              113835                       # Number of DRAM write bursts
system.mem_ctrls.dram.perBankRdBursts::0        13025                       # Per bank write bursts
system.mem_ctrls.dram.perBankRdBursts::1        13121                       # Per bank write bursts
system.mem_ctrls.dram.perBankRdBursts::2        13224                       # Per bank write bursts
system.mem_ctrls.dram.perBankRdBursts::3        12944                       # Per bank write bursts
system.mem_ctrls.dram.perBankRdBursts::4        13087                       # Per bank write bursts
system.mem_ctrls.dram.perBankRdBursts::5        12797                       # Per bank write bursts
system.mem_ctrls.dram.perBankRdBursts::6        12937                       # Per bank write bursts
system.mem_ctrls.dram.perBankRdBursts::7        12512                       # Per bank write bursts
system.mem_ctrls.dram.perBankRdBursts::8        12804                       # Per bank write bursts
system.mem_ctrls.dram.perBankRdBursts::9        12974                       # Per bank write bursts
system.mem_ctrls.dram.perBankRdBursts::10        13060                       # Per bank write bursts
system.mem_ctrls.dram.perBankRdBursts::11        12975                       # Per bank write bursts
system.mem_ctrls.dram.perBankRdBursts::12        13055                       # Per bank write bursts
system.mem_ctrls.dram.perBankRdBursts::13        12909                       # Per bank write bursts
system.mem_ctrls.dram.perBankRdBursts::14        13086                       # Per bank write bursts
system.mem_ctrls.dram.perBankRdBursts::15        13011                       # Per bank write bursts
system.mem_ctrls.dram.perBankWrBursts::0         7092                       # Per bank write bursts
system.mem_ctrls.dram.perBankWrBursts::1         7186                       # Per bank write bursts
system.mem_ctrls.dram.perBankWrBursts::2         7396                       # Per bank write bursts
system.mem_ctrls.dram.perBankWrBursts::3         7238                       # Per bank write bursts
system.mem_ctrls.dram.perBankWrBursts::4         7355                       # Per bank write bursts
system.mem_ctrls.dram.perBankWrBursts::5         7034                       # Per bank write bursts
system.mem_ctrls.dram.perBankWrBursts::6         7062                       # Per bank write bursts
system.mem_ctrls.dram.perBankWrBursts::7         6645                       # Per bank write bursts
system.mem_ctrls.dram.perBankWrBursts::8         6946                       # Per bank write bursts
system.mem_ctrls.dram.perBankWrBursts::9         7109                       # Per bank write bursts
system.mem_ctrls.dram.perBankWrBursts::10         7137                       # Per bank write bursts
system.mem_ctrls.dram.perBankWrBursts::11         7022                       # Per bank write bursts
system.mem_ctrls.dram.perBankWrBursts::12         7115                       # Per bank write bursts
system.mem_ctrls.dram.perBankWrBursts::13         7135                       # Per bank write bursts
system.mem_ctrls.dram.perBankWrBursts::14         7189                       # Per bank write bursts
system.mem_ctrls.dram.perBankWrBursts::15         7174                       # Per bank write bursts
system.mem_ctrls.dram.totQLat              2847456750                       # Total ticks spent queuing
system.mem_ctrls.dram.totBusLat            1037605000                       # Total ticks spent in databus transfers
system.mem_ctrls.dram.totMemAccLat         6738475500                       # Total ticks spent from burst creation until serviced by the DRAM
system.mem_ctrls.dram.avgQLat                13721.29                       # Average queueing delay per DRAM burst
system.mem_ctrls.dram.avgBusLat               5000.00                       # Average bus latency per DRAM burst
system.mem_ctrls.dram.avgMemAccLat           32471.29                       # Average memory access latency per DRAM burst
system.mem_ctrls.dram.readRowHits              134980                       # Number of row buffer hits during reads
system.mem_ctrls.dram.writeRowHits              71869                       # Number of row buffer hits during writes
system.mem_ctrls.dram.readRowHitRate            65.04                       # Row buffer hit rate for reads
system.mem_ctrls.dram.writeRowHitRate           63.13                       # Row buffer hit rate for writes
system.mem_ctrls.dram.bytesPerActivate::samples       114498                       # Bytes accessed per row activation
system.mem_ctrls.dram.bytesPerActivate::mean   179.620675                       # Bytes accessed per row activation
system.mem_ctrls.dram.bytesPerActivate::gmean   106.091586                       # Bytes accessed per row activation
system.mem_ctrls.dram.bytesPerActivate::stdev   247.364138                       # Bytes accessed per row activation
system.mem_ctrls.dram.bytesPerActivate::0-127        79681     69.59%     69.59% # Bytes accessed per row activation
system.mem_ctrls.dram.bytesPerActivate::128-255        12683     11.08%     80.67% # Bytes accessed per row activation
system.mem_ctrls.dram.bytesPerActivate::256-383         4699      4.10%     84.77% # Bytes accessed per row activation
system.mem_ctrls.dram.bytesPerActivate::384-511         1165      1.02%     85.79% # Bytes accessed per row activation
system.mem_ctrls.dram.bytesPerActivate::512-639         8871      7.75%     93.54% # Bytes accessed per row activation
system.mem_ctrls.dram.bytesPerActivate::640-767          652      0.57%     94.11% # Bytes accessed per row activation
system.mem_ctrls.dram.bytesPerActivate::768-895          410      0.36%     94.47% # Bytes accessed per row activation
system.mem_ctrls.dram.bytesPerActivate::896-1023          384      0.34%     94.80% # Bytes accessed per row activation
system.mem_ctrls.dram.bytesPerActivate::1024-1151         5953      5.20%    100.00% # Bytes accessed per row activation
system.mem_ctrls.dram.bytesPerActivate::total       114498                       # Bytes accessed per row activation
system.mem_ctrls.dram.bytesRead              13281344                       # Total number of bytes read from DRAM
system.mem_ctrls.dram.bytesWritten            7285440                       # Total number of bytes written to DRAM
system.mem_ctrls.dram.avgRdBW               82.466073                       # Average DRAM read bandwidth in MiBytes/s
system.mem_ctrls.dram.avgWrBW               45.236508                       # Average DRAM write bandwidth in MiBytes/s
system.mem_ctrls.dram.peakBW                 12800.00                       # Theoretical peak bandwidth in MiByte/s
system.mem_ctrls.dram.busUtil                    1.00                       # Data bus utilization in percentage
system.mem_ctrls.dram.busUtilRead                0.64                       # Data bus utilization in percentage for reads
system.mem_ctrls.dram.busUtilWrite               0.35                       # Data bus utilization in percentage for writes
system.mem_ctrls.dram.pageHitRate               64.37                       # Row buffer hit rate, read and write combined
system.mem_ctrls.dram.power_state.pwrStateResidencyTicks::UNDEFINED 161052219000                       # Cumulative time (in ticks) in various power states
system.mem_ctrls.dram.rank0.actEnergy       411321120                       # Energy for activate commands per rank (pJ)
system.mem_ctrls.dram.rank0.preEnergy       218603385                       # Energy for precharge commands per rank (pJ)
system.mem_ctrls.dram.rank0.readEnergy      740039580                       # Energy for read commands per rank (pJ)
system.mem_ctrls.dram.rank0.writeEnergy     297581760                       # Energy for write commands per rank (pJ)
system.mem_ctrls.dram.rank0.refreshEnergy 12713213760.000002                       # Energy for refresh commands per rank (pJ)
system.mem_ctrls.dram.rank0.actBackEnergy  33652378200                       # Energy for active background per rank (pJ)
system.mem_ctrls.dram.rank0.preBackEnergy  33505207680                       # Energy for precharge background per rank (pJ)
system.mem_ctrls.dram.rank0.actPowerDownEnergy            0                       # Energy for active power-down per rank (pJ)
system.mem_ctrls.dram.rank0.prePowerDownEnergy            0                       # Energy for precharge power-down per rank (pJ)
system.mem_ctrls.dram.rank0.selfRefreshEnergy            0                       # Energy for self refresh per rank (pJ)
system.mem_ctrls.dram.rank0.totalEnergy   81538345485                       # Total energy per rank (pJ)
system.mem_ctrls.dram.rank0.averagePower   506.285141                       # Core power per rank (mW)
system.mem_ctrls.dram.rank0.totalIdleTime            0                       # Total Idle time Per DRAM Rank
system.mem_ctrls.dram.rank0.pwrStateTime::IDLE  86748123500                       # Time in different power states
system.mem_ctrls.dram.rank0.pwrStateTime::REF   5377840000                       # Time in different power states
system.mem_ctrls.dram.rank0.pwrStateTime::SREF            0                       # Time in different power states
system.mem_ctrls.dram.rank0.pwrStateTime::PRE_PDN            0                       # Time in different power states
system.mem_ctrls.dram.rank0.pwrStateTime::ACT  68926255500                       # Time in different power states
system.mem_ctrls.dram.rank0.pwrStateTime::ACT_PDN            0                       # Time in different power states
system.mem_ctrls.dram.rank1.actEnergy       406258860                       # Energy for activate commands per rank (pJ)
system.mem_ctrls.dram.rank1.preEnergy       215916525                       # Energy for precharge commands per rank (pJ)
system.mem_ctrls.dram.rank1.readEnergy      741660360                       # Energy for read commands per rank (pJ)
system.mem_ctrls.dram.rank1.writeEnergy     296636940                       # Energy for write commands per rank (pJ)
system.mem_ctrls.dram.rank1.refreshEnergy 12713213760.000002                       # Energy for refresh commands per rank (pJ)
system.mem_ctrls.dram.rank1.actBackEnergy  34255290000                       # Energy for active background per rank (pJ)
system.mem_ctrls.dram.rank1.preBackEnergy  32997492480                       # Energy for precharge background per rank (pJ)
system.mem_ctrls.dram.rank1.actPowerDownEnergy            0                       # Energy for active power-down per rank (pJ)
system.mem_ctrls.dram.rank1.prePowerDownEnergy            0                       # Energy for precharge power-down per rank (pJ)
system.mem_ctrls.dram.rank1.selfRefreshEnergy            0                       # Energy for self refresh per rank (pJ)
system.mem_ctrls.dram.rank1.totalEnergy   81626468925                       # Total energy per rank (pJ)
system.mem_ctrls.dram.rank1.averagePower   506.832315                       # Core power per rank (mW)
system.mem_ctrls.dram.rank1.totalIdleTime            0                       # Total Idle time Per DRAM Rank
system.mem_ctrls.dram.rank1.pwrStateTime::IDLE  85423191750                       # Time in different power states
system.mem_ctrls.dram.rank1.pwrStateTime::REF   5377840000                       # Time in different power states
system.mem_ctrls.dram.rank1.pwrStateTime::SREF            0                       # Time in different power states
system.mem_ctrls.dram.rank1.pwrStateTime::PRE_PDN            0                       # Time in different power states
system.mem_ctrls.dram.rank1.pwrStateTime::ACT  70251187250                       # Time in different power states
system.mem_ctrls.dram.rank1.pwrStateTime::ACT_PDN            0                       # Time in different power states
system.mem_ctrls.power_state.pwrStateResidencyTicks::UNDEFINED 161052219000                       # Cumulative time (in ticks) in various power states
system.membus.trans_dist::ReadResp              69998                       # Transaction distribution
system.membus.trans_dist::WritebackDirty       113853                       # Transaction distribution
system.membus.trans_dist::CleanEvict            60575                       # Transaction distribution
system.membus.trans_dist::ReadExReq            137592                       # Transaction distribution
system.membus.trans_dist::ReadExResp           137592                       # Transaction distribution
system.membus.trans_dist::ReadSharedReq         69998                       # Transaction distribution
system.membus.pkt_count_system.l2.mem_side_port::system.mem_ctrls.port       589608                       # Packet count per connected requestor and responder (bytes)
system.membus.pkt_count::total                 589608                       # Packet count per connected requestor and responder (bytes)
system.membus.pkt_size_system.l2.mem_side_port::system.mem_ctrls.port     20572352                       # Cumulative packet size per connected requestor and responder (bytes)
system.membus.pkt_size::total                20572352                       # Cumulative packet size per connected requestor and responder (bytes)
system.membus.snoops                                0                       # Total snoops (count)
system.membus.snoopTraffic                          0                       # Total snoop traffic (bytes)
system.membus.snoop_fanout::samples            207590                       # Request fanout histogram
system.membus.snoop_fanout::mean                    0                       # Request fanout histogram
system.membus.snoop_fanout::stdev                   0                       # Request fanout histogram
system.membus.snoop_fanout::underflows              0      0.00%      0.00% # Request fanout histogram
system.membus.snoop_fanout::0                  207590    100.00%    100.00% # Request fanout histogram
system.membus.snoop_fanout::1                       0      0.00%    100.00% # Request fanout histogram
system.membus.snoop_fanout::overflows               0      0.00%    100.00% # Request fanout histogram
system.membus.snoop_fanout::min_value               0                       # Request fanout histogram
system.membus.snoop_fanout::max_value               0                       # Request fanout histogram
system.membus.snoop_fanout::total              207590                       # Request fanout histogram
system.membus.power_state.pwrStateResidencyTicks::UNDEFINED 161052219000                       # Cumulative time (in ticks) in various power states
system.membus.reqLayer0.occupancy           837430000                       # Layer occupancy (ticks)
system.membus.reqLayer0.utilization               0.5                       # Layer utilization (%)
system.membus.respLayer1.occupancy         1121882500                       # Layer occupancy (ticks)
system.membus.respLayer1.utilization              0.7                       # Layer utilization (%)
system.tol2bus.trans_dist::ReadResp            398076                       # Transaction distribution
system.tol2bus.trans_dist::WritebackDirty       717185                       # Transaction distribution
system.tol2bus.trans_dist::WritebackClean          331                       # Transaction distribution
system.tol2bus.trans_dist::CleanEvict          141537                       # Transaction distribution
system.tol2bus.trans_dist::ReadExReq           287335                       # Transaction distribution
system.tol2bus.trans_dist::ReadExResp          287334                       # Transaction distribution
system.tol2bus.trans_dist::ReadCleanReq           773                       # Transaction distribution
system.tol2bus.trans_dist::ReadSharedReq       397303                       # Transaction distribution
system.tol2bus.pkt_count_system.cpu.icache.mem_side_port::system.l2.cpu_side_port         1877                       # Packet count per connected requestor and responder (bytes)
system.tol2bus.pkt_count_system.cpu.dcache.mem_side_port::system.l2.cpu_side_port      2052888                       # Packet count per connected requestor and responder (bytes)
system.tol2bus.pkt_count::total               2054765                       # Packet count per connected requestor and responder (bytes)
system.tol2bus.pkt_size_system.cpu.icache.mem_side_port::system.l2.cpu_side_port        70656                       # Cumulative packet size per connected requestor and responder (bytes)
system.tol2bus.pkt_size_system.cpu.dcache.mem_side_port::system.l2.cpu_side_port     82430016                       # Cumulative packet size per connected requestor and responder (bytes)
system.tol2bus.pkt_size::total               82500672                       # Cumulative packet size per connected requestor and responder (bytes)
system.tol2bus.snoops                          175109                       # Total snoops (count)
system.tol2bus.snoopTraffic                   7286592                       # Total snoop traffic (bytes)
system.tol2bus.snoop_fanout::samples           860520                       # Request fanout histogram
system.tol2bus.snoop_fanout::mean            0.004867                       # Request fanout histogram
system.tol2bus.snoop_fanout::stdev           0.069609                       # Request fanout histogram
system.tol2bus.snoop_fanout::underflows             0      0.00%      0.00% # Request fanout histogram
system.tol2bus.snoop_fanout::0                 856333     99.51%     99.51% # Request fanout histogram
system.tol2bus.snoop_fanout::1                   4186      0.49%    100.00% # Request fanout histogram
system.tol2bus.snoop_fanout::2                      1      0.00%    100.00% # Request fanout histogram
system.tol2bus.snoop_fanout::overflows              0      0.00%    100.00% # Request fanout histogram
system.tol2bus.snoop_fanout::min_value              0                       # Request fanout histogram
system.tol2bus.snoop_fanout::max_value              2                       # Request fanout histogram
system.tol2bus.snoop_fanout::total             860520                       # Request fanout histogram
system.tol2bus.power_state.pwrStateResidencyTicks::UNDEFINED 161052219000                       # Cumulative time (in ticks) in various power states
system.tol2bus.reqLayer0.occupancy         2576681000                       # Layer occupancy (ticks)
system.tol2bus.reqLayer0.utilization              1.6                       # Layer utilization (%)
system.tol2bus.respLayer0.occupancy           2319000                       # Layer occupancy (ticks)
system.tol2bus.respLayer0.utilization             0.0                       # Layer utilization (%)
system.tol2bus.respLayer1.occupancy        2053915995                       # Layer occupancy (ticks)
system.tol2bus.respLayer1.utilization             1.3                       # Layer utilization (%)
system.voltage_domain.voltage                       1                       # Voltage in Volts

---------- End Simulation Statistics   ----------
