
---------- Begin Simulation Statistics ----------
final_tick                               109224389000                       # Number of ticks from beginning of simulation (restored from checkpoints and never reset)
host_inst_rate                                 181397                       # Simulator instruction rate (inst/s)
host_mem_usage                                 722112                       # Number of bytes of host memory used
host_op_rate                                   197975                       # Simulator op (including micro ops) rate (op/s)
host_seconds                                   551.28                       # Real time elapsed on the host
host_tick_rate                              198129215                       # Simulator tick rate (ticks/s)
sim_freq                                 1000000000000                       # Frequency of simulated ticks
sim_insts                                   100000001                       # Number of instructions simulated
sim_ops                                     109139393                       # Number of ops (including micro ops) simulated
sim_seconds                                  0.109224                       # Number of seconds simulated
sim_ticks                                109224389000                       # Number of ticks simulated
system.cpu.committedInsts                   100000001                       # Number of instructions committed
system.cpu.committedOps                     109139393                       # Number of ops (including micro ops) committed
system.cpu.cpi                               1.092244                       # CPI: cycles per instruction
system.cpu.discardedOps                        431148                       # Number of ops (including micro ops) which were discarded before commit
system.cpu.idleCycles                         2503995                       # Total number of cycles that the object has spent stopped
system.cpu.ipc                               0.915546                       # IPC: instructions per cycle
system.cpu.numCycles                        109224389                       # number of cpu cycles simulated
system.cpu.numFetchSuspends                         0                       # Number of times Execute suspended instruction fetching
system.cpu.numWorkItemsCompleted                    0                       # number of work items this cpu completed
system.cpu.numWorkItemsStarted                      0                       # number of work items this cpu started
system.cpu.op_class_0::No_OpClass                   0      0.00%      0.00% # Class of committed instruction
system.cpu.op_class_0::IntAlu                72222733     66.17%     66.17% # Class of committed instruction
system.cpu.op_class_0::IntMult                 547028      0.50%     66.68% # Class of committed instruction
system.cpu.op_class_0::IntDiv                       0      0.00%     66.68% # Class of committed instruction
system.cpu.op_class_0::FloatAdd                     0      0.00%     66.68% # Class of committed instruction
system.cpu.op_class_0::FloatCmp                     0      0.00%     66.68% # Class of committed instruction
system.cpu.op_class_0::FloatCvt                     0      0.00%     66.68% # Class of committed instruction
system.cpu.op_class_0::FloatMult                    0      0.00%     66.68% # Class of committed instruction
system.cpu.op_class_0::FloatMultAcc                 0      0.00%     66.68% # Class of committed instruction
system.cpu.op_class_0::FloatDiv                     0      0.00%     66.68% # Class of committed instruction
system.cpu.op_class_0::FloatMisc                    0      0.00%     66.68% # Class of committed instruction
system.cpu.op_class_0::FloatSqrt                    0      0.00%     66.68% # Class of committed instruction
system.cpu.op_class_0::SimdAdd                 231656      0.21%     66.89% # Class of committed instruction
system.cpu.op_class_0::SimdAddAcc                   0      0.00%     66.89% # Class of committed instruction
system.cpu.op_class_0::SimdAlu                 148482      0.14%     67.02% # Class of committed instruction
system.cpu.op_class_0::SimdCmp                 115828      0.11%     67.13% # Class of committed instruction
system.cpu.op_class_0::SimdCvt                      0      0.00%     67.13% # Class of committed instruction
system.cpu.op_class_0::SimdMisc                 42808      0.04%     67.17% # Class of committed instruction
system.cpu.op_class_0::SimdMult                     0      0.00%     67.17% # Class of committed instruction
system.cpu.op_class_0::SimdMultAcc                  0      0.00%     67.17% # Class of committed instruction
system.cpu.op_class_0::SimdShift                    0      0.00%     67.17% # Class of committed instruction
system.cpu.op_class_0::SimdShiftAcc                 0      0.00%     67.17% # Class of committed instruction
system.cpu.op_class_0::SimdDiv                      0      0.00%     67.17% # Class of committed instruction
system.cpu.op_class_0::SimdSqrt                     0      0.00%     67.17% # Class of committed instruction
system.cpu.op_class_0::SimdFloatAdd                 0      0.00%     67.17% # Class of committed instruction
system.cpu.op_class_0::SimdFloatAlu                 0      0.00%     67.17% # Class of committed instruction
system.cpu.op_class_0::SimdFloatCmp                 0      0.00%     67.17% # Class of committed instruction
system.cpu.op_class_0::SimdFloatCvt                 0      0.00%     67.17% # Class of committed instruction
system.cpu.op_class_0::SimdFloatDiv                 0      0.00%     67.17% # Class of committed instruction
system.cpu.op_class_0::SimdFloatMisc           159857      0.15%     67.32% # Class of committed instruction
system.cpu.op_class_0::SimdFloatMult                0      0.00%     67.32% # Class of committed instruction
system.cpu.op_class_0::SimdFloatMultAcc             0      0.00%     67.32% # Class of committed instruction
system.cpu.op_class_0::SimdFloatSqrt                0      0.00%     67.32% # Class of committed instruction
system.cpu.op_class_0::SimdReduceAdd                0      0.00%     67.32% # Class of committed instruction
system.cpu.op_class_0::SimdReduceAlu                0      0.00%     67.32% # Class of committed instruction
system.cpu.op_class_0::SimdReduceCmp                0      0.00%     67.32% # Class of committed instruction
system.cpu.op_class_0::SimdFloatReduceAdd            0      0.00%     67.32% # Class of committed instruction
system.cpu.op_class_0::SimdFloatReduceCmp            0      0.00%     67.32% # Class of committed instruction
system.cpu.op_class_0::SimdAes                      0      0.00%     67.32% # Class of committed instruction
system.cpu.op_class_0::SimdAesMix                   0      0.00%     67.32% # Class of committed instruction
system.cpu.op_class_0::SimdSha1Hash                 0      0.00%     67.32% # Class of committed instruction
system.cpu.op_class_0::SimdSha1Hash2                0      0.00%     67.32% # Class of committed instruction
system.cpu.op_class_0::SimdSha256Hash               0      0.00%     67.32% # Class of committed instruction
system.cpu.op_class_0::SimdSha256Hash2              0      0.00%     67.32% # Class of committed instruction
system.cpu.op_class_0::SimdShaSigma2                0      0.00%     67.32% # Class of committed instruction
system.cpu.op_class_0::SimdShaSigma3                0      0.00%     67.32% # Class of committed instruction
system.cpu.op_class_0::SimdPredAlu                  0      0.00%     67.32% # Class of committed instruction
system.cpu.op_class_0::MemRead               20932683     19.18%     86.50% # Class of committed instruction
system.cpu.op_class_0::MemWrite              14738318     13.50%    100.00% # Class of committed instruction
system.cpu.op_class_0::FloatMemRead                 0      0.00%    100.00% # Class of committed instruction
system.cpu.op_class_0::FloatMemWrite                0      0.00%    100.00% # Class of committed instruction
system.cpu.op_class_0::IprAccess                    0      0.00%    100.00% # Class of committed instruction
system.cpu.op_class_0::InstPrefetch                 0      0.00%    100.00% # Class of committed instruction
system.cpu.op_class_0::total                109139393                       # Class of committed instruction
system.cpu.tickCycles                       106720394                       # Number of cycles that the object actually ticked
system.cpu.workload.numSyscalls                    85                       # Number of system calls
system.membus.snoop_filter.hit_multi_requests            0                       # Number of requests hitting in the snoop filter with multiple (>1) holders of the requested data.
system.membus.snoop_filter.hit_multi_snoops            0                       # Number of snoops hitting in the snoop filter with multiple (>1) holders of the requested data.
system.membus.snoop_filter.hit_single_requests         5657                       # Number of requests hitting in the snoop filter with a single holder of the requested data.
system.membus.snoop_filter.hit_single_snoops            0                       # Number of snoops hitting in the snoop filter with a single holder of the requested data.
system.membus.snoop_filter.tot_requests         44479                       # Total number of requests made to the snoop filter.
system.membus.snoop_filter.tot_snoops               0                       # Total number of snoops made to the snoop filter.
system.tol2bus.snoop_filter.hit_multi_requests           17                       # Number of requests hitting in the snoop filter with multiple (>1) holders of the requested data.
system.tol2bus.snoop_filter.hit_multi_snoops            0                       # Number of snoops hitting in the snoop filter with multiple (>1) holders of the requested data.
system.tol2bus.snoop_filter.hit_single_requests        51914                       # Number of requests hitting in the snoop filter with a single holder of the requested data.
system.tol2bus.snoop_filter.hit_single_snoops          401                       # Number of snoops hitting in the snoop filter with a single holder of the requested data.
system.tol2bus.snoop_filter.tot_requests       105238                       # Total number of requests made to the snoop filter.
system.tol2bus.snoop_filter.tot_snoops            401                       # Total number of snoops made to the snoop filter.
system.clk_domain.clock                          1000                       # Clock period in ticks
system.cpu.branchPred.lookups                19659293                       # Number of BP lookups
system.cpu.branchPred.condPredicted          15818910                       # Number of conditional branches predicted
system.cpu.branchPred.condIncorrect             88865                       # Number of conditional branches incorrect
system.cpu.branchPred.BTBLookups              8076164                       # Number of BTB lookups
system.cpu.branchPred.BTBHits                 8062911                       # Number of BTB hits
system.cpu.branchPred.BTBHitPct             99.835900                       # BTB Hit Percentage
system.cpu.branchPred.RASUsed                 1050623                       # Number of times the RAS was used to get a target.
system.cpu.branchPred.RASIncorrect                468                       # Number of incorrect RAS predictions.
system.cpu.branchPred.indirectLookups          422617                       # Number of indirect predictor lookups.
system.cpu.branchPred.indirectHits             287881                       # Number of indirect target hits.
system.cpu.branchPred.indirectMisses           134736                       # Number of indirect misses.
system.cpu.branchPred.indirectMispredicted          993                       # Number of mispredicted indirect branches.
system.cpu.dcache.demand_hits::.cpu.data     35098782                       # number of demand (read+write) hits
system.cpu.dcache.demand_hits::total         35098782                       # number of demand (read+write) hits
system.cpu.dcache.overall_hits::.cpu.data     35101867                       # number of overall hits
system.cpu.dcache.overall_hits::total        35101867                       # number of overall hits
system.cpu.dcache.demand_misses::.cpu.data        71647                       # number of demand (read+write) misses
system.cpu.dcache.demand_misses::total          71647                       # number of demand (read+write) misses
system.cpu.dcache.overall_misses::.cpu.data        71691                       # number of overall misses
system.cpu.dcache.overall_misses::total         71691                       # number of overall misses
system.cpu.dcache.demand_miss_latency::.cpu.data   6004215000                       # number of demand (read+write) miss cycles
system.cpu.dcache.demand_miss_latency::total   6004215000                       # number of demand (read+write) miss cycles
system.cpu.dcache.overall_miss_latency::.cpu.data   6004215000                       # number of overall miss cycles
system.cpu.dcache.overall_miss_latency::total   6004215000                       # number of overall miss cycles
system.cpu.dcache.demand_accesses::.cpu.data     35170429                       # number of demand (read+write) accesses
system.cpu.dcache.demand_accesses::total     35170429                       # number of demand (read+write) accesses
system.cpu.dcache.overall_accesses::.cpu.data     35173558                       # number of overall (read+write) accesses
system.cpu.dcache.overall_accesses::total     35173558                       # number of overall (read+write) accesses
system.cpu.dcache.demand_miss_rate::.cpu.data     0.002037                       # miss rate for demand accesses
system.cpu.dcache.demand_miss_rate::total     0.002037                       # miss rate for demand accesses
system.cpu.dcache.overall_miss_rate::.cpu.data     0.002038                       # miss rate for overall accesses
system.cpu.dcache.overall_miss_rate::total     0.002038                       # miss rate for overall accesses
system.cpu.dcache.demand_avg_miss_latency::.cpu.data 83802.741217                       # average overall miss latency
system.cpu.dcache.demand_avg_miss_latency::total 83802.741217                       # average overall miss latency
system.cpu.dcache.overall_avg_miss_latency::.cpu.data 83751.307696                       # average overall miss latency
system.cpu.dcache.overall_avg_miss_latency::total 83751.307696                       # average overall miss latency
system.cpu.dcache.blocked_cycles::no_mshrs            0                       # number of cycles access was blocked
system.cpu.dcache.blocked_cycles::no_targets            0                       # number of cycles access was blocked
system.cpu.dcache.blocked::no_mshrs                 0                       # number of cycles access was blocked
system.cpu.dcache.blocked::no_targets               0                       # number of cycles access was blocked
system.cpu.dcache.avg_blocked_cycles::no_mshrs          nan                       # average number of cycles each access was blocked
system.cpu.dcache.avg_blocked_cycles::no_targets          nan                       # average number of cycles each access was blocked
system.cpu.dcache.writebacks::.writebacks        48477                       # number of writebacks
system.cpu.dcache.writebacks::total             48477                       # number of writebacks
system.cpu.dcache.demand_mshr_hits::.cpu.data        19355                       # number of demand (read+write) MSHR hits
system.cpu.dcache.demand_mshr_hits::total        19355                       # number of demand (read+write) MSHR hits
system.cpu.dcache.overall_mshr_hits::.cpu.data        19355                       # number of overall MSHR hits
system.cpu.dcache.overall_mshr_hits::total        19355                       # number of overall MSHR hits
system.cpu.dcache.demand_mshr_misses::.cpu.data        52292                       # number of demand (read+write) MSHR misses
system.cpu.dcache.demand_mshr_misses::total        52292                       # number of demand (read+write) MSHR misses
system.cpu.dcache.overall_mshr_misses::.cpu.data        52329                       # number of overall MSHR misses
system.cpu.dcache.overall_mshr_misses::total        52329                       # number of overall MSHR misses
system.cpu.dcache.demand_mshr_miss_latency::.cpu.data   4636393000                       # number of demand (read+write) MSHR miss cycles
system.cpu.dcache.demand_mshr_miss_latency::total   4636393000                       # number of demand (read+write) MSHR miss cycles
system.cpu.dcache.overall_mshr_miss_latency::.cpu.data   4638512000                       # number of overall MSHR miss cycles
system.cpu.dcache.overall_mshr_miss_latency::total   4638512000                       # number of overall MSHR miss cycles
system.cpu.dcache.demand_mshr_miss_rate::.cpu.data     0.001487                       # mshr miss rate for demand accesses
system.cpu.dcache.demand_mshr_miss_rate::total     0.001487                       # mshr miss rate for demand accesses
system.cpu.dcache.overall_mshr_miss_rate::.cpu.data     0.001488                       # mshr miss rate for overall accesses
system.cpu.dcache.overall_mshr_miss_rate::total     0.001488                       # mshr miss rate for overall accesses
system.cpu.dcache.demand_avg_mshr_miss_latency::.cpu.data 88663.524057                       # average overall mshr miss latency
system.cpu.dcache.demand_avg_mshr_miss_latency::total 88663.524057                       # average overall mshr miss latency
system.cpu.dcache.overall_avg_mshr_miss_latency::.cpu.data 88641.326989                       # average overall mshr miss latency
system.cpu.dcache.overall_avg_mshr_miss_latency::total 88641.326989                       # average overall mshr miss latency
system.cpu.dcache.replacements                  51305                       # number of replacements
system.cpu.dcache.ReadReq_hits::.cpu.data     20886356                       # number of ReadReq hits
system.cpu.dcache.ReadReq_hits::total        20886356                       # number of ReadReq hits
system.cpu.dcache.ReadReq_misses::.cpu.data        17152                       # number of ReadReq misses
system.cpu.dcache.ReadReq_misses::total         17152                       # number of ReadReq misses
system.cpu.dcache.ReadReq_miss_latency::.cpu.data    491922000                       # number of ReadReq miss cycles
system.cpu.dcache.ReadReq_miss_latency::total    491922000                       # number of ReadReq miss cycles
system.cpu.dcache.ReadReq_accesses::.cpu.data     20903508                       # number of ReadReq accesses(hits+misses)
system.cpu.dcache.ReadReq_accesses::total     20903508                       # number of ReadReq accesses(hits+misses)
system.cpu.dcache.ReadReq_miss_rate::.cpu.data     0.000821                       # miss rate for ReadReq accesses
system.cpu.dcache.ReadReq_miss_rate::total     0.000821                       # miss rate for ReadReq accesses
system.cpu.dcache.ReadReq_avg_miss_latency::.cpu.data 28680.153918                       # average ReadReq miss latency
system.cpu.dcache.ReadReq_avg_miss_latency::total 28680.153918                       # average ReadReq miss latency
system.cpu.dcache.ReadReq_mshr_hits::.cpu.data         2823                       # number of ReadReq MSHR hits
system.cpu.dcache.ReadReq_mshr_hits::total         2823                       # number of ReadReq MSHR hits
system.cpu.dcache.ReadReq_mshr_misses::.cpu.data        14329                       # number of ReadReq MSHR misses
system.cpu.dcache.ReadReq_mshr_misses::total        14329                       # number of ReadReq MSHR misses
system.cpu.dcache.ReadReq_mshr_miss_latency::.cpu.data    375438000                       # number of ReadReq MSHR miss cycles
system.cpu.dcache.ReadReq_mshr_miss_latency::total    375438000                       # number of ReadReq MSHR miss cycles
system.cpu.dcache.ReadReq_mshr_miss_rate::.cpu.data     0.000685                       # mshr miss rate for ReadReq accesses
system.cpu.dcache.ReadReq_mshr_miss_rate::total     0.000685                       # mshr miss rate for ReadReq accesses
system.cpu.dcache.ReadReq_avg_mshr_miss_latency::.cpu.data 26201.270151                       # average ReadReq mshr miss latency
system.cpu.dcache.ReadReq_avg_mshr_miss_latency::total 26201.270151                       # average ReadReq mshr miss latency
system.cpu.dcache.WriteReq_hits::.cpu.data     14212426                       # number of WriteReq hits
system.cpu.dcache.WriteReq_hits::total       14212426                       # number of WriteReq hits
system.cpu.dcache.WriteReq_misses::.cpu.data        54495                       # number of WriteReq misses
system.cpu.dcache.WriteReq_misses::total        54495                       # number of WriteReq misses
system.cpu.dcache.WriteReq_miss_latency::.cpu.data   5512293000                       # number of WriteReq miss cycles
system.cpu.dcache.WriteReq_miss_latency::total   5512293000                       # number of WriteReq miss cycles
system.cpu.dcache.WriteReq_accesses::.cpu.data     14266921                       # number of WriteReq accesses(hits+misses)
system.cpu.dcache.WriteReq_accesses::total     14266921                       # number of WriteReq accesses(hits+misses)
system.cpu.dcache.WriteReq_miss_rate::.cpu.data     0.003820                       # miss rate for WriteReq accesses
system.cpu.dcache.WriteReq_miss_rate::total     0.003820                       # miss rate for WriteReq accesses
system.cpu.dcache.WriteReq_avg_miss_latency::.cpu.data 101152.270851                       # average WriteReq miss latency
system.cpu.dcache.WriteReq_avg_miss_latency::total 101152.270851                       # average WriteReq miss latency
system.cpu.dcache.WriteReq_mshr_hits::.cpu.data        16532                       # number of WriteReq MSHR hits
system.cpu.dcache.WriteReq_mshr_hits::total        16532                       # number of WriteReq MSHR hits
system.cpu.dcache.WriteReq_mshr_misses::.cpu.data        37963                       # number of WriteReq MSHR misses
system.cpu.dcache.WriteReq_mshr_misses::total        37963                       # number of WriteReq MSHR misses
system.cpu.dcache.WriteReq_mshr_miss_latency::.cpu.data   4260955000                       # number of WriteReq MSHR miss cycles
system.cpu.dcache.WriteReq_mshr_miss_latency::total   4260955000                       # number of WriteReq MSHR miss cycles
system.cpu.dcache.WriteReq_mshr_miss_rate::.cpu.data     0.002661                       # mshr miss rate for WriteReq accesses
system.cpu.dcache.WriteReq_mshr_miss_rate::total     0.002661                       # mshr miss rate for WriteReq accesses
system.cpu.dcache.WriteReq_avg_mshr_miss_latency::.cpu.data 112239.680742                       # average WriteReq mshr miss latency
system.cpu.dcache.WriteReq_avg_mshr_miss_latency::total 112239.680742                       # average WriteReq mshr miss latency
system.cpu.dcache.SoftPFReq_hits::.cpu.data         3085                       # number of SoftPFReq hits
system.cpu.dcache.SoftPFReq_hits::total          3085                       # number of SoftPFReq hits
system.cpu.dcache.SoftPFReq_misses::.cpu.data           44                       # number of SoftPFReq misses
system.cpu.dcache.SoftPFReq_misses::total           44                       # number of SoftPFReq misses
system.cpu.dcache.SoftPFReq_accesses::.cpu.data         3129                       # number of SoftPFReq accesses(hits+misses)
system.cpu.dcache.SoftPFReq_accesses::total         3129                       # number of SoftPFReq accesses(hits+misses)
system.cpu.dcache.SoftPFReq_miss_rate::.cpu.data     0.014062                       # miss rate for SoftPFReq accesses
system.cpu.dcache.SoftPFReq_miss_rate::total     0.014062                       # miss rate for SoftPFReq accesses
system.cpu.dcache.SoftPFReq_mshr_misses::.cpu.data           37                       # number of SoftPFReq MSHR misses
system.cpu.dcache.SoftPFReq_mshr_misses::total           37                       # number of SoftPFReq MSHR misses
system.cpu.dcache.SoftPFReq_mshr_miss_latency::.cpu.data      2119000                       # number of SoftPFReq MSHR miss cycles
system.cpu.dcache.SoftPFReq_mshr_miss_latency::total      2119000                       # number of SoftPFReq MSHR miss cycles
system.cpu.dcache.SoftPFReq_mshr_miss_rate::.cpu.data     0.011825                       # mshr miss rate for SoftPFReq accesses
system.cpu.dcache.SoftPFReq_mshr_miss_rate::total     0.011825                       # mshr miss rate for SoftPFReq accesses
system.cpu.dcache.SoftPFReq_avg_mshr_miss_latency::.cpu.data 57270.270270                       # average SoftPFReq mshr miss latency
system.cpu.dcache.SoftPFReq_avg_mshr_miss_latency::total 57270.270270                       # average SoftPFReq mshr miss latency
system.cpu.dcache.LoadLockedReq_hits::.cpu.data        85610                       # number of LoadLockedReq hits
system.cpu.dcache.LoadLockedReq_hits::total        85610                       # number of LoadLockedReq hits
system.cpu.dcache.LoadLockedReq_accesses::.cpu.data        85610                       # number of LoadLockedReq accesses(hits+misses)
system.cpu.dcache.LoadLockedReq_accesses::total        85610                       # number of LoadLockedReq accesses(hits+misses)
system.cpu.dcache.StoreCondReq_hits::.cpu.data        85610                       # number of StoreCondReq hits
system.cpu.dcache.StoreCondReq_hits::total        85610                       # number of StoreCondReq hits
system.cpu.dcache.StoreCondReq_accesses::.cpu.data        85610                       # number of StoreCondReq accesses(hits+misses)
system.cpu.dcache.StoreCondReq_accesses::total        85610                       # number of StoreCondReq accesses(hits+misses)
system.cpu.dcache.power_state.pwrStateResidencyTicks::UNDEFINED 109224389000                       # Cumulative time (in ticks) in various power states
system.cpu.dcache.tags.tagsinuse          1020.694004                       # Cycle average of tags in use
system.cpu.dcache.tags.total_refs            35325416                       # Total number of references to valid blocks.
system.cpu.dcache.tags.sampled_refs             52329                       # Sample count of references to valid blocks.
system.cpu.dcache.tags.avg_refs            675.063846                       # Average number of references to valid blocks.
system.cpu.dcache.tags.warmup_cycle            223000                       # Cycle when the warmup percentage was hit.
system.cpu.dcache.tags.occ_blocks::.cpu.data  1020.694004                       # Average occupied blocks per requestor
system.cpu.dcache.tags.occ_percent::.cpu.data     0.996771                       # Average percentage of cache occupancy
system.cpu.dcache.tags.occ_percent::total     0.996771                       # Average percentage of cache occupancy
system.cpu.dcache.tags.occ_task_id_blocks::1024         1024                       # Occupied blocks per task id
system.cpu.dcache.tags.age_task_id_blocks_1024::0            3                       # Occupied blocks per task id
system.cpu.dcache.tags.age_task_id_blocks_1024::1           25                       # Occupied blocks per task id
system.cpu.dcache.tags.age_task_id_blocks_1024::2          236                       # Occupied blocks per task id
system.cpu.dcache.tags.age_task_id_blocks_1024::3          705                       # Occupied blocks per task id
system.cpu.dcache.tags.age_task_id_blocks_1024::4           55                       # Occupied blocks per task id
system.cpu.dcache.tags.occ_task_id_percent::1024            1                       # Percentage of cache occupancy per task id
system.cpu.dcache.tags.tag_accesses          70741885                       # Number of tag accesses
system.cpu.dcache.tags.data_accesses         70741885                       # Number of data accesses
system.cpu.dcache.tags.power_state.pwrStateResidencyTicks::UNDEFINED 109224389000                       # Cumulative time (in ticks) in various power states
system.cpu.dtb.instHits                             0                       # ITB inst hits
system.cpu.dtb.instMisses                           0                       # ITB inst misses
system.cpu.dtb.readHits                             0                       # DTB read hits
system.cpu.dtb.readMisses                           0                       # DTB read misses
system.cpu.dtb.writeHits                            0                       # DTB write hits
system.cpu.dtb.writeMisses                          0                       # DTB write misses
system.cpu.dtb.inserts                              0                       # Number of times an entry is inserted into the TLB
system.cpu.dtb.flushTlb                             0                       # Number of times complete TLB was flushed
system.cpu.dtb.flushTlbMva                          0                       # Number of times TLB was flushed by MVA
system.cpu.dtb.flushTlbMvaAsid                      0                       # Number of times TLB was flushed by MVA & ASID
system.cpu.dtb.flushTlbAsid                         0                       # Number of times TLB was flushed by ASID
system.cpu.dtb.flushedEntries                       0                       # Number of entries that have been flushed from TLB
system.cpu.dtb.alignFaults                          0                       # Number of TLB faults due to alignment restrictions
system.cpu.dtb.prefetchFaults                       0                       # Number of TLB faults due to prefetch
system.cpu.dtb.domainFaults                         0                       # Number of TLB faults due to domain restrictions
system.cpu.dtb.permsFaults                          0                       # Number of TLB faults due to permissions restrictions
system.cpu.dtb.readAccesses                         0                       # DTB read accesses
system.cpu.dtb.writeAccesses                        0                       # DTB write accesses
system.cpu.dtb.instAccesses                         0                       # ITB inst accesses
system.cpu.dtb.hits                                 0                       # Total TLB (inst and data) hits
system.cpu.dtb.misses                               0                       # Total TLB (inst and data) misses
system.cpu.dtb.accesses                             0                       # Total TLB (inst and data) accesses
system.cpu.dtb.stage2_mmu.stage2_tlb.instHits            0                       # ITB inst hits
system.cpu.dtb.stage2_mmu.stage2_tlb.instMisses            0                       # ITB inst misses
system.cpu.dtb.stage2_mmu.stage2_tlb.readHits            0                       # DTB read hits
system.cpu.dtb.stage2_mmu.stage2_tlb.readMisses            0                       # DTB read misses
system.cpu.dtb.stage2_mmu.stage2_tlb.writeHits            0                       # DTB write hits
system.cpu.dtb.stage2_mmu.stage2_tlb.writeMisses            0                       # DTB write misses
system.cpu.dtb.stage2_mmu.stage2_tlb.inserts            0                       # Number of times an entry is inserted into the TLB
system.cpu.dtb.stage2_mmu.stage2_tlb.flushTlb            0                       # Number of times complete TLB was flushed
system.cpu.dtb.stage2_mmu.stage2_tlb.flushTlbMva            0                       # Number of times TLB was flushed by MVA
system.cpu.dtb.stage2_mmu.stage2_tlb.flushTlbMvaAsid            0                       # Number of times TLB was flushed by MVA & ASID
system.cpu.dtb.stage2_mmu.stage2_tlb.flushTlbAsid            0                       # Number of times TLB was flushed by ASID
system.cpu.dtb.stage2_mmu.stage2_tlb.flushedEntries            0                       # Number of entries that have been flushed from TLB
system.cpu.dtb.stage2_mmu.stage2_tlb.alignFaults            0                       # Number of TLB faults due to alignment restrictions
system.cpu.dtb.stage2_mmu.stage2_tlb.prefetchFaults            0                       # Number of TLB faults due to prefetch
system.cpu.dtb.stage2_mmu.stage2_tlb.domainFaults            0                       # Number of TLB faults due to domain restrictions
system.cpu.dtb.stage2_mmu.stage2_tlb.permsFaults            0                       # Number of TLB faults due to permissions restrictions
system.cpu.dtb.stage2_mmu.stage2_tlb.readAccesses            0                       # DTB read accesses
system.cpu.dtb.stage2_mmu.stage2_tlb.writeAccesses            0                       # DTB write accesses
system.cpu.dtb.stage2_mmu.stage2_tlb.instAccesses            0                       # ITB inst accesses
system.cpu.dtb.stage2_mmu.stage2_tlb.hits            0                       # Total TLB (inst and data) hits
system.cpu.dtb.stage2_mmu.stage2_tlb.misses            0                       # Total TLB (inst and data) misses
system.cpu.dtb.stage2_mmu.stage2_tlb.accesses            0                       # Total TLB (inst and data) accesses
system.cpu.dtb.stage2_mmu.stage2_tlb.walker.walks            0                       # Table walker walks requested
system.cpu.dtb.stage2_mmu.stage2_tlb.walker.requestOrigin_Requested::Data            0                       # Table walker requests started/completed, data/inst
system.cpu.dtb.stage2_mmu.stage2_tlb.walker.requestOrigin_Requested::Inst            0                       # Table walker requests started/completed, data/inst
system.cpu.dtb.stage2_mmu.stage2_tlb.walker.requestOrigin_Requested::total            0                       # Table walker requests started/completed, data/inst
system.cpu.dtb.stage2_mmu.stage2_tlb.walker.requestOrigin_Completed::Data            0                       # Table walker requests started/completed, data/inst
system.cpu.dtb.stage2_mmu.stage2_tlb.walker.requestOrigin_Completed::Inst            0                       # Table walker requests started/completed, data/inst
system.cpu.dtb.stage2_mmu.stage2_tlb.walker.requestOrigin_Completed::total            0                       # Table walker requests started/completed, data/inst
system.cpu.dtb.stage2_mmu.stage2_tlb.walker.requestOrigin::total            0                       # Table walker requests started/completed, data/inst
system.cpu.dtb.stage2_mmu.stage2_tlb.walker.power_state.pwrStateResidencyTicks::UNDEFINED 109224389000                       # Cumulative time (in ticks) in various power states
system.cpu.dtb.walker.walks                         0                       # Table walker walks requested
system.cpu.dtb.walker.requestOrigin_Requested::Data            0                       # Table walker requests started/completed, data/inst
system.cpu.dtb.walker.requestOrigin_Requested::Inst            0                       # Table walker requests started/completed, data/inst
system.cpu.dtb.walker.requestOrigin_Requested::total            0                       # Table walker requests started/completed, data/inst
system.cpu.dtb.walker.requestOrigin_Completed::Data            0                       # Table walker requests started/completed, data/inst
system.cpu.dtb.walker.requestOrigin_Completed::Inst            0                       # Table walker requests started/completed, data/inst
system.cpu.dtb.walker.requestOrigin_Completed::total            0                       # Table walker requests started/completed, data/inst
system.cpu.dtb.walker.requestOrigin::total            0                       # Table walker requests started/completed, data/inst
system.cpu.dtb.walker.power_state.pwrStateResidencyTicks::UNDEFINED 109224389000                       # Cumulative time (in ticks) in various power states
system.cpu.fetch2.intInstructions            49125010                       # Number of integer instructions successfully decoded
system.cpu.fetch2.fpInstructions                    0                       # Number of floating point instructions successfully decoded
system.cpu.fetch2.vecInstructions                   0                       # Number of SIMD instructions successfully decoded
system.cpu.fetch2.loadInstructions           17532192                       # Number of memory load instructions successfully decoded
system.cpu.fetch2.storeInstructions          10086724                       # Number of memory store instructions successfully decoded
system.cpu.fetch2.amoInstructions                   0                       # Number of memory atomic instructions successfully decoded
system.cpu.icache.demand_hits::.cpu.inst     27002098                       # number of demand (read+write) hits
system.cpu.icache.demand_hits::total         27002098                       # number of demand (read+write) hits
system.cpu.icache.overall_hits::.cpu.inst     27002098                       # number of overall hits
system.cpu.icache.overall_hits::total        27002098                       # number of overall hits
system.cpu.icache.demand_misses::.cpu.inst          997                       # number of demand (read+write) misses
system.cpu.icache.demand_misses::total            997                       # number of demand (read+write) misses
system.cpu.icache.overall_misses::.cpu.inst          997                       # number of overall misses
system.cpu.icache.overall_misses::total           997                       # number of overall misses
system.cpu.icache.demand_miss_latency::.cpu.inst     64034000                       # number of demand (read+write) miss cycles
system.cpu.icache.demand_miss_latency::total     64034000                       # number of demand (read+write) miss cycles
system.cpu.icache.overall_miss_latency::.cpu.inst     64034000                       # number of overall miss cycles
system.cpu.icache.overall_miss_latency::total     64034000                       # number of overall miss cycles
system.cpu.icache.demand_accesses::.cpu.inst     27003095                       # number of demand (read+write) accesses
system.cpu.icache.demand_accesses::total     27003095                       # number of demand (read+write) accesses
system.cpu.icache.overall_accesses::.cpu.inst     27003095                       # number of overall (read+write) accesses
system.cpu.icache.overall_accesses::total     27003095                       # number of overall (read+write) accesses
system.cpu.icache.demand_miss_rate::.cpu.inst     0.000037                       # miss rate for demand accesses
system.cpu.icache.demand_miss_rate::total     0.000037                       # miss rate for demand accesses
system.cpu.icache.overall_miss_rate::.cpu.inst     0.000037                       # miss rate for overall accesses
system.cpu.icache.overall_miss_rate::total     0.000037                       # miss rate for overall accesses
system.cpu.icache.demand_avg_miss_latency::.cpu.inst 64226.680040                       # average overall miss latency
system.cpu.icache.demand_avg_miss_latency::total 64226.680040                       # average overall miss latency
system.cpu.icache.overall_avg_miss_latency::.cpu.inst 64226.680040                       # average overall miss latency
system.cpu.icache.overall_avg_miss_latency::total 64226.680040                       # average overall miss latency
system.cpu.icache.blocked_cycles::no_mshrs            0                       # number of cycles access was blocked
system.cpu.icache.blocked_cycles::no_targets            0                       # number of cycles access was blocked
system.cpu.icache.blocked::no_mshrs                 0                       # number of cycles access was blocked
system.cpu.icache.blocked::no_targets               0                       # number of cycles access was blocked
system.cpu.icache.avg_blocked_cycles::no_mshrs          nan                       # average number of cycles each access was blocked
system.cpu.icache.avg_blocked_cycles::no_targets          nan                       # average number of cycles each access was blocked
system.cpu.icache.writebacks::.writebacks          607                       # number of writebacks
system.cpu.icache.writebacks::total               607                       # number of writebacks
system.cpu.icache.demand_mshr_misses::.cpu.inst          997                       # number of demand (read+write) MSHR misses
system.cpu.icache.demand_mshr_misses::total          997                       # number of demand (read+write) MSHR misses
system.cpu.icache.overall_mshr_misses::.cpu.inst          997                       # number of overall MSHR misses
system.cpu.icache.overall_mshr_misses::total          997                       # number of overall MSHR misses
system.cpu.icache.demand_mshr_miss_latency::.cpu.inst     62040000                       # number of demand (read+write) MSHR miss cycles
system.cpu.icache.demand_mshr_miss_latency::total     62040000                       # number of demand (read+write) MSHR miss cycles
system.cpu.icache.overall_mshr_miss_latency::.cpu.inst     62040000                       # number of overall MSHR miss cycles
system.cpu.icache.overall_mshr_miss_latency::total     62040000                       # number of overall MSHR miss cycles
system.cpu.icache.demand_mshr_miss_rate::.cpu.inst     0.000037                       # mshr miss rate for demand accesses
system.cpu.icache.demand_mshr_miss_rate::total     0.000037                       # mshr miss rate for demand accesses
system.cpu.icache.overall_mshr_miss_rate::.cpu.inst     0.000037                       # mshr miss rate for overall accesses
system.cpu.icache.overall_mshr_miss_rate::total     0.000037                       # mshr miss rate for overall accesses
system.cpu.icache.demand_avg_mshr_miss_latency::.cpu.inst 62226.680040                       # average overall mshr miss latency
system.cpu.icache.demand_avg_mshr_miss_latency::total 62226.680040                       # average overall mshr miss latency
system.cpu.icache.overall_avg_mshr_miss_latency::.cpu.inst 62226.680040                       # average overall mshr miss latency
system.cpu.icache.overall_avg_mshr_miss_latency::total 62226.680040                       # average overall mshr miss latency
system.cpu.icache.replacements                    607                       # number of replacements
system.cpu.icache.ReadReq_hits::.cpu.inst     27002098                       # number of ReadReq hits
system.cpu.icache.ReadReq_hits::total        27002098                       # number of ReadReq hits
system.cpu.icache.ReadReq_misses::.cpu.inst          997                       # number of ReadReq misses
system.cpu.icache.ReadReq_misses::total           997                       # number of ReadReq misses
system.cpu.icache.ReadReq_miss_latency::.cpu.inst     64034000                       # number of ReadReq miss cycles
system.cpu.icache.ReadReq_miss_latency::total     64034000                       # number of ReadReq miss cycles
system.cpu.icache.ReadReq_accesses::.cpu.inst     27003095                       # number of ReadReq accesses(hits+misses)
system.cpu.icache.ReadReq_accesses::total     27003095                       # number of ReadReq accesses(hits+misses)
system.cpu.icache.ReadReq_miss_rate::.cpu.inst     0.000037                       # miss rate for ReadReq accesses
system.cpu.icache.ReadReq_miss_rate::total     0.000037                       # miss rate for ReadReq accesses
system.cpu.icache.ReadReq_avg_miss_latency::.cpu.inst 64226.680040                       # average ReadReq miss latency
system.cpu.icache.ReadReq_avg_miss_latency::total 64226.680040                       # average ReadReq miss latency
system.cpu.icache.ReadReq_mshr_misses::.cpu.inst          997                       # number of ReadReq MSHR misses
system.cpu.icache.ReadReq_mshr_misses::total          997                       # number of ReadReq MSHR misses
system.cpu.icache.ReadReq_mshr_miss_latency::.cpu.inst     62040000                       # number of ReadReq MSHR miss cycles
system.cpu.icache.ReadReq_mshr_miss_latency::total     62040000                       # number of ReadReq MSHR miss cycles
system.cpu.icache.ReadReq_mshr_miss_rate::.cpu.inst     0.000037                       # mshr miss rate for ReadReq accesses
system.cpu.icache.ReadReq_mshr_miss_rate::total     0.000037                       # mshr miss rate for ReadReq accesses
system.cpu.icache.ReadReq_avg_mshr_miss_latency::.cpu.inst 62226.680040                       # average ReadReq mshr miss latency
system.cpu.icache.ReadReq_avg_mshr_miss_latency::total 62226.680040                       # average ReadReq mshr miss latency
system.cpu.icache.power_state.pwrStateResidencyTicks::UNDEFINED 109224389000                       # Cumulative time (in ticks) in various power states
system.cpu.icache.tags.tagsinuse           389.617836                       # Cycle average of tags in use
system.cpu.icache.tags.total_refs            27003095                       # Total number of references to valid blocks.
system.cpu.icache.tags.sampled_refs               997                       # Sample count of references to valid blocks.
system.cpu.icache.tags.avg_refs          27084.348044                       # Average number of references to valid blocks.
system.cpu.icache.tags.warmup_cycle            108000                       # Cycle when the warmup percentage was hit.
system.cpu.icache.tags.occ_blocks::.cpu.inst   389.617836                       # Average occupied blocks per requestor
system.cpu.icache.tags.occ_percent::.cpu.inst     0.760972                       # Average percentage of cache occupancy
system.cpu.icache.tags.occ_percent::total     0.760972                       # Average percentage of cache occupancy
system.cpu.icache.tags.occ_task_id_blocks::1024          390                       # Occupied blocks per task id
system.cpu.icache.tags.age_task_id_blocks_1024::1            4                       # Occupied blocks per task id
system.cpu.icache.tags.age_task_id_blocks_1024::4          386                       # Occupied blocks per task id
system.cpu.icache.tags.occ_task_id_percent::1024     0.761719                       # Percentage of cache occupancy per task id
system.cpu.icache.tags.tag_accesses          54007187                       # Number of tag accesses
system.cpu.icache.tags.data_accesses         54007187                       # Number of data accesses
system.cpu.icache.tags.power_state.pwrStateResidencyTicks::UNDEFINED 109224389000                       # Cumulative time (in ticks) in various power states
system.cpu.itb.instHits                             0                       # ITB inst hits
system.cpu.itb.instMisses                           0                       # ITB inst misses
system.cpu.itb.readHits                             0                       # DTB read hits
system.cpu.itb.readMisses                           0                       # DTB read misses
system.cpu.itb.writeHits                            0                       # DTB write hits
system.cpu.itb.writeMisses                          0                       # DTB write misses
system.cpu.itb.inserts                              0                       # Number of times an entry is inserted into the TLB
system.cpu.itb.flushTlb                             0                       # Number of times complete TLB was flushed
system.cpu.itb.flushTlbMva                          0                       # Number of times TLB was flushed by MVA
system.cpu.itb.flushTlbMvaAsid                      0                       # Number of times TLB was flushed by MVA & ASID
system.cpu.itb.flushTlbAsid                         0                       # Number of times TLB was flushed by ASID
system.cpu.itb.flushedEntries                       0                       # Number of entries that have been flushed from TLB
system.cpu.itb.alignFaults                          0                       # Number of TLB faults due to alignment restrictions
system.cpu.itb.prefetchFaults                       0                       # Number of TLB faults due to prefetch
system.cpu.itb.domainFaults                         0                       # Number of TLB faults due to domain restrictions
system.cpu.itb.permsFaults                          0                       # Number of TLB faults due to permissions restrictions
system.cpu.itb.readAccesses                         0                       # DTB read accesses
system.cpu.itb.writeAccesses                        0                       # DTB write accesses
system.cpu.itb.instAccesses                         0                       # ITB inst accesses
system.cpu.itb.hits                                 0                       # Total TLB (inst and data) hits
system.cpu.itb.misses                               0                       # Total TLB (inst and data) misses
system.cpu.itb.accesses                             0                       # Total TLB (inst and data) accesses
system.cpu.itb.stage2_mmu.stage2_tlb.instHits            0                       # ITB inst hits
system.cpu.itb.stage2_mmu.stage2_tlb.instMisses            0                       # ITB inst misses
system.cpu.itb.stage2_mmu.stage2_tlb.readHits            0                       # DTB read hits
system.cpu.itb.stage2_mmu.stage2_tlb.readMisses            0                       # DTB read misses
system.cpu.itb.stage2_mmu.stage2_tlb.writeHits            0                       # DTB write hits
system.cpu.itb.stage2_mmu.stage2_tlb.writeMisses            0                       # DTB write misses
system.cpu.itb.stage2_mmu.stage2_tlb.inserts            0                       # Number of times an entry is inserted into the TLB
system.cpu.itb.stage2_mmu.stage2_tlb.flushTlb            0                       # Number of times complete TLB was flushed
system.cpu.itb.stage2_mmu.stage2_tlb.flushTlbMva            0                       # Number of times TLB was flushed by MVA
system.cpu.itb.stage2_mmu.stage2_tlb.flushTlbMvaAsid            0                       # Number of times TLB was flushed by MVA & ASID
system.cpu.itb.stage2_mmu.stage2_tlb.flushTlbAsid            0                       # Number of times TLB was flushed by ASID
system.cpu.itb.stage2_mmu.stage2_tlb.flushedEntries            0                       # Number of entries that have been flushed from TLB
system.cpu.itb.stage2_mmu.stage2_tlb.alignFaults            0                       # Number of TLB faults due to alignment restrictions
system.cpu.itb.stage2_mmu.stage2_tlb.prefetchFaults            0                       # Number of TLB faults due to prefetch
system.cpu.itb.stage2_mmu.stage2_tlb.domainFaults            0                       # Number of TLB faults due to domain restrictions
system.cpu.itb.stage2_mmu.stage2_tlb.permsFaults            0                       # Number of TLB faults due to permissions restrictions
system.cpu.itb.stage2_mmu.stage2_tlb.readAccesses            0                       # DTB read accesses
system.cpu.itb.stage2_mmu.stage2_tlb.writeAccesses            0                       # DTB write accesses
system.cpu.itb.stage2_mmu.stage2_tlb.instAccesses            0                       # ITB inst accesses
system.cpu.itb.stage2_mmu.stage2_tlb.hits            0                       # Total TLB (inst and data) hits
system.cpu.itb.stage2_mmu.stage2_tlb.misses            0                       # Total TLB (inst and data) misses
system.cpu.itb.stage2_mmu.stage2_tlb.accesses            0                       # Total TLB (inst and data) accesses
system.cpu.itb.stage2_mmu.stage2_tlb.walker.walks            0                       # Table walker walks requested
system.cpu.itb.stage2_mmu.stage2_tlb.walker.requestOrigin_Requested::Data            0                       # Table walker requests started/completed, data/inst
system.cpu.itb.stage2_mmu.stage2_tlb.walker.requestOrigin_Requested::Inst            0                       # Table walker requests started/completed, data/inst
system.cpu.itb.stage2_mmu.stage2_tlb.walker.requestOrigin_Requested::total            0                       # Table walker requests started/completed, data/inst
system.cpu.itb.stage2_mmu.stage2_tlb.walker.requestOrigin_Completed::Data            0                       # Table walker requests started/completed, data/inst
system.cpu.itb.stage2_mmu.stage2_tlb.walker.requestOrigin_Completed::Inst            0                       # Table walker requests started/completed, data/inst
system.cpu.itb.stage2_mmu.stage2_tlb.walker.requestOrigin_Completed::total            0                       # Table walker requests started/completed, data/inst
system.cpu.itb.stage2_mmu.stage2_tlb.walker.requestOrigin::total            0                       # Table walker requests started/completed, data/inst
system.cpu.itb.stage2_mmu.stage2_tlb.walker.power_state.pwrStateResidencyTicks::UNDEFINED 109224389000                       # Cumulative time (in ticks) in various power states
system.cpu.itb.walker.walks                         0                       # Table walker walks requested
system.cpu.itb.walker.requestOrigin_Requested::Data            0                       # Table walker requests started/completed, data/inst
system.cpu.itb.walker.requestOrigin_Requested::Inst            0                       # Table walker requests started/completed, data/inst
system.cpu.itb.walker.requestOrigin_Requested::total            0                       # Table walker requests started/completed, data/inst
system.cpu.itb.walker.requestOrigin_Completed::Data            0                       # Table walker requests started/completed, data/inst
system.cpu.itb.walker.requestOrigin_Completed::Inst            0                       # Table walker requests started/completed, data/inst
system.cpu.itb.walker.requestOrigin_Completed::total            0                       # Table walker requests started/completed, data/inst
system.cpu.itb.walker.requestOrigin::total            0                       # Table walker requests started/completed, data/inst
system.cpu.itb.walker.power_state.pwrStateResidencyTicks::UNDEFINED 109224389000                       # Cumulative time (in ticks) in various power states
system.cpu.power_state.pwrStateResidencyTicks::ON 109224389000                       # Cumulative time (in ticks) in various power states
system.cpu.thread_0.numInsts                100000001                       # Number of Instructions committed
system.cpu.thread_0.numOps                  109139393                       # Number of Ops committed
system.cpu.thread_0.numMemRefs                      0                       # Number of Memory References
system.cpu_clk_domain.clock                      1000                       # Clock period in ticks
system.cpu_voltage_domain.voltage                   1                       # Voltage in Volts
system.l2.demand_hits::.cpu.inst                  491                       # number of demand (read+write) hits
system.l2.demand_hits::.cpu.data                14012                       # number of demand (read+write) hits
system.l2.demand_hits::total                    14503                       # number of demand (read+write) hits
system.l2.overall_hits::.cpu.inst                 491                       # number of overall hits
system.l2.overall_hits::.cpu.data               14012                       # number of overall hits
system.l2.overall_hits::total                   14503                       # number of overall hits
system.l2.demand_misses::.cpu.inst                506                       # number of demand (read+write) misses
system.l2.demand_misses::.cpu.data              38317                       # number of demand (read+write) misses
system.l2.demand_misses::total                  38823                       # number of demand (read+write) misses
system.l2.overall_misses::.cpu.inst               506                       # number of overall misses
system.l2.overall_misses::.cpu.data             38317                       # number of overall misses
system.l2.overall_misses::total                 38823                       # number of overall misses
system.l2.demand_miss_latency::.cpu.inst     48720000                       # number of demand (read+write) miss cycles
system.l2.demand_miss_latency::.cpu.data   4187248000                       # number of demand (read+write) miss cycles
system.l2.demand_miss_latency::total       4235968000                       # number of demand (read+write) miss cycles
system.l2.overall_miss_latency::.cpu.inst     48720000                       # number of overall miss cycles
system.l2.overall_miss_latency::.cpu.data   4187248000                       # number of overall miss cycles
system.l2.overall_miss_latency::total      4235968000                       # number of overall miss cycles
system.l2.demand_accesses::.cpu.inst              997                       # number of demand (read+write) accesses
system.l2.demand_accesses::.cpu.data            52329                       # number of demand (read+write) accesses
system.l2.demand_accesses::total                53326                       # number of demand (read+write) accesses
system.l2.overall_accesses::.cpu.inst             997                       # number of overall (read+write) accesses
system.l2.overall_accesses::.cpu.data           52329                       # number of overall (read+write) accesses
system.l2.overall_accesses::total               53326                       # number of overall (read+write) accesses
system.l2.demand_miss_rate::.cpu.inst        0.507523                       # miss rate for demand accesses
system.l2.demand_miss_rate::.cpu.data        0.732233                       # miss rate for demand accesses
system.l2.demand_miss_rate::total            0.728031                       # miss rate for demand accesses
system.l2.overall_miss_rate::.cpu.inst       0.507523                       # miss rate for overall accesses
system.l2.overall_miss_rate::.cpu.data       0.732233                       # miss rate for overall accesses
system.l2.overall_miss_rate::total           0.728031                       # miss rate for overall accesses
system.l2.demand_avg_miss_latency::.cpu.inst 96284.584980                       # average overall miss latency
system.l2.demand_avg_miss_latency::.cpu.data 109279.118929                       # average overall miss latency
system.l2.demand_avg_miss_latency::total 109109.754527                       # average overall miss latency
system.l2.overall_avg_miss_latency::.cpu.inst 96284.584980                       # average overall miss latency
system.l2.overall_avg_miss_latency::.cpu.data 109279.118929                       # average overall miss latency
system.l2.overall_avg_miss_latency::total 109109.754527                       # average overall miss latency
system.l2.blocked_cycles::no_mshrs                  0                       # number of cycles access was blocked
system.l2.blocked_cycles::no_targets                0                       # number of cycles access was blocked
system.l2.blocked::no_mshrs                         0                       # number of cycles access was blocked
system.l2.blocked::no_targets                       0                       # number of cycles access was blocked
system.l2.avg_blocked_cycles::no_mshrs            nan                       # average number of cycles each access was blocked
system.l2.avg_blocked_cycles::no_targets          nan                       # average number of cycles each access was blocked
system.l2.writebacks::.writebacks                5489                       # number of writebacks
system.l2.writebacks::total                      5489                       # number of writebacks
system.l2.demand_mshr_hits::.cpu.data               1                       # number of demand (read+write) MSHR hits
system.l2.demand_mshr_hits::total                   1                       # number of demand (read+write) MSHR hits
system.l2.overall_mshr_hits::.cpu.data              1                       # number of overall MSHR hits
system.l2.overall_mshr_hits::total                  1                       # number of overall MSHR hits
system.l2.demand_mshr_misses::.cpu.inst           506                       # number of demand (read+write) MSHR misses
system.l2.demand_mshr_misses::.cpu.data         38316                       # number of demand (read+write) MSHR misses
system.l2.demand_mshr_misses::total             38822                       # number of demand (read+write) MSHR misses
system.l2.overall_mshr_misses::.cpu.inst          506                       # number of overall MSHR misses
system.l2.overall_mshr_misses::.cpu.data        38316                       # number of overall MSHR misses
system.l2.overall_mshr_misses::total            38822                       # number of overall MSHR misses
system.l2.demand_mshr_miss_latency::.cpu.inst     38600000                       # number of demand (read+write) MSHR miss cycles
system.l2.demand_mshr_miss_latency::.cpu.data   3420841000                       # number of demand (read+write) MSHR miss cycles
system.l2.demand_mshr_miss_latency::total   3459441000                       # number of demand (read+write) MSHR miss cycles
system.l2.overall_mshr_miss_latency::.cpu.inst     38600000                       # number of overall MSHR miss cycles
system.l2.overall_mshr_miss_latency::.cpu.data   3420841000                       # number of overall MSHR miss cycles
system.l2.overall_mshr_miss_latency::total   3459441000                       # number of overall MSHR miss cycles
system.l2.demand_mshr_miss_rate::.cpu.inst     0.507523                       # mshr miss rate for demand accesses
system.l2.demand_mshr_miss_rate::.cpu.data     0.732213                       # mshr miss rate for demand accesses
system.l2.demand_mshr_miss_rate::total       0.728013                       # mshr miss rate for demand accesses
system.l2.overall_mshr_miss_rate::.cpu.inst     0.507523                       # mshr miss rate for overall accesses
system.l2.overall_mshr_miss_rate::.cpu.data     0.732213                       # mshr miss rate for overall accesses
system.l2.overall_mshr_miss_rate::total      0.728013                       # mshr miss rate for overall accesses
system.l2.demand_avg_mshr_miss_latency::.cpu.inst 76284.584980                       # average overall mshr miss latency
system.l2.demand_avg_mshr_miss_latency::.cpu.data 89279.700386                       # average overall mshr miss latency
system.l2.demand_avg_mshr_miss_latency::total 89110.324043                       # average overall mshr miss latency
system.l2.overall_avg_mshr_miss_latency::.cpu.inst 76284.584980                       # average overall mshr miss latency
system.l2.overall_avg_mshr_miss_latency::.cpu.data 89279.700386                       # average overall mshr miss latency
system.l2.overall_avg_mshr_miss_latency::total 89110.324043                       # average overall mshr miss latency
system.l2.replacements                           6057                       # number of replacements
system.l2.WritebackDirty_hits::.writebacks        48477                       # number of WritebackDirty hits
system.l2.WritebackDirty_hits::total            48477                       # number of WritebackDirty hits
system.l2.WritebackDirty_accesses::.writebacks        48477                       # number of WritebackDirty accesses(hits+misses)
system.l2.WritebackDirty_accesses::total        48477                       # number of WritebackDirty accesses(hits+misses)
system.l2.WritebackClean_hits::.writebacks          603                       # number of WritebackClean hits
system.l2.WritebackClean_hits::total              603                       # number of WritebackClean hits
system.l2.WritebackClean_accesses::.writebacks          603                       # number of WritebackClean accesses(hits+misses)
system.l2.WritebackClean_accesses::total          603                       # number of WritebackClean accesses(hits+misses)
system.l2.CleanEvict_mshr_misses::.writebacks            1                       # number of CleanEvict MSHR misses
system.l2.CleanEvict_mshr_misses::total             1                       # number of CleanEvict MSHR misses
system.l2.CleanEvict_mshr_miss_rate::.writebacks          inf                       # mshr miss rate for CleanEvict accesses
system.l2.CleanEvict_mshr_miss_rate::total          inf                       # mshr miss rate for CleanEvict accesses
system.l2.ReadExReq_hits::.cpu.data                23                       # number of ReadExReq hits
system.l2.ReadExReq_hits::total                    23                       # number of ReadExReq hits
system.l2.ReadExReq_misses::.cpu.data           37940                       # number of ReadExReq misses
system.l2.ReadExReq_misses::total               37940                       # number of ReadExReq misses
system.l2.ReadExReq_miss_latency::.cpu.data   4146579000                       # number of ReadExReq miss cycles
system.l2.ReadExReq_miss_latency::total    4146579000                       # number of ReadExReq miss cycles
system.l2.ReadExReq_accesses::.cpu.data         37963                       # number of ReadExReq accesses(hits+misses)
system.l2.ReadExReq_accesses::total             37963                       # number of ReadExReq accesses(hits+misses)
system.l2.ReadExReq_miss_rate::.cpu.data     0.999394                       # miss rate for ReadExReq accesses
system.l2.ReadExReq_miss_rate::total         0.999394                       # miss rate for ReadExReq accesses
system.l2.ReadExReq_avg_miss_latency::.cpu.data 109293.068002                       # average ReadExReq miss latency
system.l2.ReadExReq_avg_miss_latency::total 109293.068002                       # average ReadExReq miss latency
system.l2.ReadExReq_mshr_misses::.cpu.data        37940                       # number of ReadExReq MSHR misses
system.l2.ReadExReq_mshr_misses::total          37940                       # number of ReadExReq MSHR misses
system.l2.ReadExReq_mshr_miss_latency::.cpu.data   3387779000                       # number of ReadExReq MSHR miss cycles
system.l2.ReadExReq_mshr_miss_latency::total   3387779000                       # number of ReadExReq MSHR miss cycles
system.l2.ReadExReq_mshr_miss_rate::.cpu.data     0.999394                       # mshr miss rate for ReadExReq accesses
system.l2.ReadExReq_mshr_miss_rate::total     0.999394                       # mshr miss rate for ReadExReq accesses
system.l2.ReadExReq_avg_mshr_miss_latency::.cpu.data 89293.068002                       # average ReadExReq mshr miss latency
system.l2.ReadExReq_avg_mshr_miss_latency::total 89293.068002                       # average ReadExReq mshr miss latency
system.l2.ReadCleanReq_hits::.cpu.inst            491                       # number of ReadCleanReq hits
system.l2.ReadCleanReq_hits::total                491                       # number of ReadCleanReq hits
system.l2.ReadCleanReq_misses::.cpu.inst          506                       # number of ReadCleanReq misses
system.l2.ReadCleanReq_misses::total              506                       # number of ReadCleanReq misses
system.l2.ReadCleanReq_miss_latency::.cpu.inst     48720000                       # number of ReadCleanReq miss cycles
system.l2.ReadCleanReq_miss_latency::total     48720000                       # number of ReadCleanReq miss cycles
system.l2.ReadCleanReq_accesses::.cpu.inst          997                       # number of ReadCleanReq accesses(hits+misses)
system.l2.ReadCleanReq_accesses::total            997                       # number of ReadCleanReq accesses(hits+misses)
system.l2.ReadCleanReq_miss_rate::.cpu.inst     0.507523                       # miss rate for ReadCleanReq accesses
system.l2.ReadCleanReq_miss_rate::total      0.507523                       # miss rate for ReadCleanReq accesses
system.l2.ReadCleanReq_avg_miss_latency::.cpu.inst 96284.584980                       # average ReadCleanReq miss latency
system.l2.ReadCleanReq_avg_miss_latency::total 96284.584980                       # average ReadCleanReq miss latency
system.l2.ReadCleanReq_mshr_misses::.cpu.inst          506                       # number of ReadCleanReq MSHR misses
system.l2.ReadCleanReq_mshr_misses::total          506                       # number of ReadCleanReq MSHR misses
system.l2.ReadCleanReq_mshr_miss_latency::.cpu.inst     38600000                       # number of ReadCleanReq MSHR miss cycles
system.l2.ReadCleanReq_mshr_miss_latency::total     38600000                       # number of ReadCleanReq MSHR miss cycles
system.l2.ReadCleanReq_mshr_miss_rate::.cpu.inst     0.507523                       # mshr miss rate for ReadCleanReq accesses
system.l2.ReadCleanReq_mshr_miss_rate::total     0.507523                       # mshr miss rate for ReadCleanReq accesses
system.l2.ReadCleanReq_avg_mshr_miss_latency::.cpu.inst 76284.584980                       # average ReadCleanReq mshr miss latency
system.l2.ReadCleanReq_avg_mshr_miss_latency::total 76284.584980                       # average ReadCleanReq mshr miss latency
system.l2.ReadSharedReq_hits::.cpu.data         13989                       # number of ReadSharedReq hits
system.l2.ReadSharedReq_hits::total             13989                       # number of ReadSharedReq hits
system.l2.ReadSharedReq_misses::.cpu.data          377                       # number of ReadSharedReq misses
system.l2.ReadSharedReq_misses::total             377                       # number of ReadSharedReq misses
system.l2.ReadSharedReq_miss_latency::.cpu.data     40669000                       # number of ReadSharedReq miss cycles
system.l2.ReadSharedReq_miss_latency::total     40669000                       # number of ReadSharedReq miss cycles
system.l2.ReadSharedReq_accesses::.cpu.data        14366                       # number of ReadSharedReq accesses(hits+misses)
system.l2.ReadSharedReq_accesses::total         14366                       # number of ReadSharedReq accesses(hits+misses)
system.l2.ReadSharedReq_miss_rate::.cpu.data     0.026243                       # miss rate for ReadSharedReq accesses
system.l2.ReadSharedReq_miss_rate::total     0.026243                       # miss rate for ReadSharedReq accesses
system.l2.ReadSharedReq_avg_miss_latency::.cpu.data 107875.331565                       # average ReadSharedReq miss latency
system.l2.ReadSharedReq_avg_miss_latency::total 107875.331565                       # average ReadSharedReq miss latency
system.l2.ReadSharedReq_mshr_hits::.cpu.data            1                       # number of ReadSharedReq MSHR hits
system.l2.ReadSharedReq_mshr_hits::total            1                       # number of ReadSharedReq MSHR hits
system.l2.ReadSharedReq_mshr_misses::.cpu.data          376                       # number of ReadSharedReq MSHR misses
system.l2.ReadSharedReq_mshr_misses::total          376                       # number of ReadSharedReq MSHR misses
system.l2.ReadSharedReq_mshr_miss_latency::.cpu.data     33062000                       # number of ReadSharedReq MSHR miss cycles
system.l2.ReadSharedReq_mshr_miss_latency::total     33062000                       # number of ReadSharedReq MSHR miss cycles
system.l2.ReadSharedReq_mshr_miss_rate::.cpu.data     0.026173                       # mshr miss rate for ReadSharedReq accesses
system.l2.ReadSharedReq_mshr_miss_rate::total     0.026173                       # mshr miss rate for ReadSharedReq accesses
system.l2.ReadSharedReq_avg_mshr_miss_latency::.cpu.data 87930.851064                       # average ReadSharedReq mshr miss latency
system.l2.ReadSharedReq_avg_mshr_miss_latency::total 87930.851064                       # average ReadSharedReq mshr miss latency
system.l2.power_state.pwrStateResidencyTicks::UNDEFINED 109224389000                       # Cumulative time (in ticks) in various power states
system.l2.tags.tagsinuse                 26043.781880                       # Cycle average of tags in use
system.l2.tags.total_refs                      105219                       # Total number of references to valid blocks.
system.l2.tags.sampled_refs                     38825                       # Sample count of references to valid blocks.
system.l2.tags.avg_refs                      2.710084                       # Average number of references to valid blocks.
system.l2.tags.warmup_cycle                     87000                       # Cycle when the warmup percentage was hit.
system.l2.tags.occ_blocks::.writebacks       0.226480                       # Average occupied blocks per requestor
system.l2.tags.occ_blocks::.cpu.inst       267.475235                       # Average occupied blocks per requestor
system.l2.tags.occ_blocks::.cpu.data     25776.080165                       # Average occupied blocks per requestor
system.l2.tags.occ_percent::.writebacks      0.000007                       # Average percentage of cache occupancy
system.l2.tags.occ_percent::.cpu.inst        0.008163                       # Average percentage of cache occupancy
system.l2.tags.occ_percent::.cpu.data        0.786624                       # Average percentage of cache occupancy
system.l2.tags.occ_percent::total            0.794793                       # Average percentage of cache occupancy
system.l2.tags.occ_task_id_blocks::1024         32768                       # Occupied blocks per task id
system.l2.tags.age_task_id_blocks_1024::0            2                       # Occupied blocks per task id
system.l2.tags.age_task_id_blocks_1024::1           17                       # Occupied blocks per task id
system.l2.tags.age_task_id_blocks_1024::2          190                       # Occupied blocks per task id
system.l2.tags.age_task_id_blocks_1024::3         1866                       # Occupied blocks per task id
system.l2.tags.age_task_id_blocks_1024::4        30693                       # Occupied blocks per task id
system.l2.tags.occ_task_id_percent::1024            1                       # Percentage of cache occupancy per task id
system.l2.tags.tag_accesses                    459709                       # Number of tag accesses
system.l2.tags.data_accesses                   459709                       # Number of data accesses
system.l2.tags.power_state.pwrStateResidencyTicks::UNDEFINED 109224389000                       # Cumulative time (in ticks) in various power states
system.mem_ctrls.avgPriority_.writebacks::samples      5489.00                       # Average QoS priority value for accepted requests
system.mem_ctrls.avgPriority_.cpu.inst::samples       506.00                       # Average QoS priority value for accepted requests
system.mem_ctrls.avgPriority_.cpu.data::samples     38313.00                       # Average QoS priority value for accepted requests
system.mem_ctrls.priorityMinLatency      0.000000018750                       # per QoS priority minimum request to response latency (s)
system.mem_ctrls.priorityMaxLatency      0.057875946500                       # per QoS priority maximum request to response latency (s)
system.mem_ctrls.numReadWriteTurnArounds          303                       # Number of turnarounds from READ to WRITE
system.mem_ctrls.numWriteReadTurnArounds          303                       # Number of turnarounds from WRITE to READ
system.mem_ctrls.numStayReadState              111171                       # Number of times bus staying in READ state
system.mem_ctrls.numStayWriteState               5161                       # Number of times bus staying in WRITE state
system.mem_ctrls.readReqs                       38822                       # Number of read requests accepted
system.mem_ctrls.writeReqs                       5489                       # Number of write requests accepted
system.mem_ctrls.readBursts                     38822                       # Number of controller read bursts, including those serviced by the write queue
system.mem_ctrls.writeBursts                     5489                       # Number of controller write bursts, including those merged in the write queue
system.mem_ctrls.servicedByWrQ                      3                       # Number of controller read bursts serviced by the write queue
system.mem_ctrls.mergedWrBursts                     0                       # Number of controller write bursts merged with an existing one
system.mem_ctrls.neitherReadNorWriteReqs            0                       # Number of requests that are neither read nor write
system.mem_ctrls.avgRdQLen                       1.00                       # Average read queue length when enqueuing
system.mem_ctrls.avgWrQLen                      13.07                       # Average write queue length when enqueuing
system.mem_ctrls.numRdRetry                         0                       # Number of times read queue was full causing retry
system.mem_ctrls.numWrRetry                         0                       # Number of times write queue was full causing retry
system.mem_ctrls.readPktSize::0                     0                       # Read request sizes (log2)
system.mem_ctrls.readPktSize::1                     0                       # Read request sizes (log2)
system.mem_ctrls.readPktSize::2                     0                       # Read request sizes (log2)
system.mem_ctrls.readPktSize::3                     0                       # Read request sizes (log2)
system.mem_ctrls.readPktSize::4                     0                       # Read request sizes (log2)
system.mem_ctrls.readPktSize::5                     0                       # Read request sizes (log2)
system.mem_ctrls.readPktSize::6                 38822                       # Read request sizes (log2)
system.mem_ctrls.writePktSize::0                    0                       # Write request sizes (log2)
system.mem_ctrls.writePktSize::1                    0                       # Write request sizes (log2)
system.mem_ctrls.writePktSize::2                    0                       # Write request sizes (log2)
system.mem_ctrls.writePktSize::3                    0                       # Write request sizes (log2)
system.mem_ctrls.writePktSize::4                    0                       # Write request sizes (log2)
system.mem_ctrls.writePktSize::5                    0                       # Write request sizes (log2)
system.mem_ctrls.writePktSize::6                 5489                       # Write request sizes (log2)
system.mem_ctrls.rdQLenPdf::0                   38696                       # What read queue length does an incoming req see
system.mem_ctrls.rdQLenPdf::1                     117                       # What read queue length does an incoming req see
system.mem_ctrls.rdQLenPdf::2                       6                       # What read queue length does an incoming req see
system.mem_ctrls.rdQLenPdf::3                       0                       # What read queue length does an incoming req see
system.mem_ctrls.rdQLenPdf::4                       0                       # What read queue length does an incoming req see
system.mem_ctrls.rdQLenPdf::5                       0                       # What read queue length does an incoming req see
system.mem_ctrls.rdQLenPdf::6                       0                       # What read queue length does an incoming req see
[...]
system.mem_ctrls.dram.bw_write::.writebacks      3216278                       # Write bandwidth from this memory (bytes/s)
system.mem_ctrls.dram.bw_write::total         3216278                       # Write bandwidth from this memory (bytes/s)
system.mem_ctrls.dram.bw_total::.writebacks      3216278                       # Total bandwidth to/from this memory (bytes/s)
system.mem_ctrls.dram.bw_total::.cpu.inst       296491                       # Total bandwidth to/from this memory (bytes/s)
system.mem_ctrls.dram.bw_total::.cpu.data     22451249                       # Total bandwidth to/from this memory (bytes/s)
system.mem_ctrls.dram.bw_total::total        25964018                       # Total bandwidth to/from this memory (bytes/s)
system.mem_ctrls.dram.readBursts                38819                       # Number of DRAM read bursts
system.mem_ctrls.dram.writeBursts                5458                       # Number of DRAM write bursts
system.mem_ctrls.dram.perBankRdBursts::0         2371                       # Per bank write bursts
system.mem_ctrls.dram.perBankRdBursts::1         2348                       # Per bank write bursts
system.mem_ctrls.dram.perBankRdBursts::2         2389                       # Per bank write bursts
system.mem_ctrls.dram.perBankRdBursts::3         2489                       # Per bank write bursts
system.mem_ctrls.dram.perBankRdBursts::4         2460                       # Per bank write bursts
system.mem_ctrls.dram.perBankRdBursts::5         2473                       # Per bank write bursts
system.mem_ctrls.dram.perBankRdBursts::6         2478                       # Per bank write bursts
system.mem_ctrls.dram.perBankRdBursts::7         2508                       # Per bank write bursts
system.mem_ctrls.dram.perBankRdBursts::8         2489                       # Per bank write bursts
system.mem_ctrls.dram.perBankRdBursts::9         2471                       # Per bank write bursts
system.mem_ctrls.dram.perBankRdBursts::10         2511                       # Per bank write bursts
system.mem_ctrls.dram.perBankRdBursts::11         2453                       # Per bank write bursts
system.mem_ctrls.dram.perBankRdBursts::12         2316                       # Per bank write bursts
system.mem_ctrls.dram.perBankRdBursts::13         2368                       # Per bank write bursts
system.mem_ctrls.dram.perBankRdBursts::14         2339                       # Per bank write bursts
system.mem_ctrls.dram.perBankRdBursts::15         2356                       # Per bank write bursts
system.mem_ctrls.dram.perBankWrBursts::0          280                       # Per bank write bursts
system.mem_ctrls.dram.perBankWrBursts::1          268                       # Per bank write bursts
system.mem_ctrls.dram.perBankWrBursts::2          327                       # Per bank write bursts
system.mem_ctrls.dram.perBankWrBursts::3          402                       # Per bank write bursts
system.mem_ctrls.dram.perBankWrBursts::4          332                       # Per bank write bursts
system.mem_ctrls.dram.perBankWrBursts::5          375                       # Per bank write bursts
system.mem_ctrls.dram.perBankWrBursts::6          400                       # Per bank write bursts
system.mem_ctrls.dram.perBankWrBursts::7          391                       # Per bank write bursts
system.mem_ctrls.dram.perBankWrBursts::8          391                       # Per bank write bursts
system.mem_ctrls.dram.perBankWrBursts::9          403                       # Per bank write bursts
system.mem_ctrls.dram.perBankWrBursts::10          395                       # Per bank write bursts
system.mem_ctrls.dram.perBankWrBursts::11          356                       # Per bank write bursts
system.mem_ctrls.dram.perBankWrBursts::12          268                       # Per bank write bursts
system.mem_ctrls.dram.perBankWrBursts::13          302                       # Per bank write bursts
system.mem_ctrls.dram.perBankWrBursts::14          282                       # Per bank write bursts
system.mem_ctrls.dram.perBankWrBursts::15          286                       # Per bank write bursts
system.mem_ctrls.dram.totQLat               738142250                       # Total ticks spent queuing
system.mem_ctrls.dram.totBusLat             194095000                       # Total ticks spent in databus transfers
system.mem_ctrls.dram.totMemAccLat         1465998500                       # Total ticks spent from burst creation until serviced by the DRAM
system.mem_ctrls.dram.avgQLat                19014.97                       # Average queueing delay per DRAM burst
system.mem_ctrls.dram.avgBusLat               5000.00                       # Average bus latency per DRAM burst
system.mem_ctrls.dram.avgMemAccLat           37764.97                       # Average memory access latency per DRAM burst
system.mem_ctrls.dram.readRowHits               22042                       # Number of row buffer hits during reads
system.mem_ctrls.dram.writeRowHits               4690                       # Number of row buffer hits during writes
system.mem_ctrls.dram.readRowHitRate            56.78                       # Row buffer hit rate for reads
system.mem_ctrls.dram.writeRowHitRate           85.93                       # Row buffer hit rate for writes
system.mem_ctrls.dram.bytesPerActivate::samples        17544                       # Bytes accessed per row activation
system.mem_ctrls.dram.bytesPerActivate::mean   161.517556                       # Bytes accessed per row activation
system.mem_ctrls.dram.bytesPerActivate::gmean   122.396277                       # Bytes accessed per row activation
system.mem_ctrls.dram.bytesPerActivate::stdev   156.624401                       # Bytes accessed per row activation
system.mem_ctrls.dram.bytesPerActivate::0-127         6871     39.16%     39.16% # Bytes accessed per row activation
system.mem_ctrls.dram.bytesPerActivate::128-255         7512     42.82%     81.98% # Bytes accessed per row activation
system.mem_ctrls.dram.bytesPerActivate::256-383         1212      6.91%     88.89% # Bytes accessed per row activation
system.mem_ctrls.dram.bytesPerActivate::384-511         1086      6.19%     95.08% # Bytes accessed per row activation
system.mem_ctrls.dram.bytesPerActivate::512-639          495      2.82%     97.90% # Bytes accessed per row activation
system.mem_ctrls.dram.bytesPerActivate::640-767          111      0.63%     98.54% # Bytes accessed per row activation
system.mem_ctrls.dram.bytesPerActivate::768-895           31      0.18%     98.71% # Bytes accessed per row activation
system.mem_ctrls.dram.bytesPerActivate::896-1023           44      0.25%     98.96% # Bytes accessed per row activation
system.mem_ctrls.dram.bytesPerActivate::1024-1151          182      1.04%    100.00% # Bytes accessed per row activation
system.mem_ctrls.dram.bytesPerActivate::total        17544                       # Bytes accessed per row activation
system.mem_ctrls.dram.bytesRead               2484416                       # Total number of bytes read from DRAM
system.mem_ctrls.dram.bytesWritten             349312                       # Total number of bytes written to DRAM
system.mem_ctrls.dram.avgRdBW               22.745982                       # Average DRAM read bandwidth in MiBytes/s
system.mem_ctrls.dram.avgWrBW                3.198114                       # Average DRAM write bandwidth in MiBytes/s
system.mem_ctrls.dram.peakBW                 12800.00                       # Theoretical peak bandwidth in MiByte/s
system.mem_ctrls.dram.busUtil                    0.20                       # Data bus utilization in percentage
system.mem_ctrls.dram.busUtilRead                0.18                       # Data bus utilization in percentage for reads
system.mem_ctrls.dram.busUtilWrite               0.02                       # Data bus utilization in percentage for writes
system.mem_ctrls.dram.pageHitRate               60.37                       # Row buffer hit rate, read and write combined
system.mem_ctrls.dram.power_state.pwrStateResidencyTicks::UNDEFINED 109224389000                       # Cumulative time (in ticks) in various power states
system.mem_ctrls.dram.rank0.actEnergy        63274680                       # Energy for activate commands per rank (pJ)
system.mem_ctrls.dram.rank0.preEnergy        33631290                       # Energy for precharge commands per rank (pJ)
system.mem_ctrls.dram.rank0.readEnergy      139344240                       # Energy for read commands per rank (pJ)
system.mem_ctrls.dram.rank0.writeEnergy      14485500                       # Energy for write commands per rank (pJ)
system.mem_ctrls.dram.rank0.refreshEnergy 8621555280.000002                       # Energy for refresh commands per rank (pJ)
system.mem_ctrls.dram.rank0.actBackEnergy  20398384230                       # Energy for active background per rank (pJ)
system.mem_ctrls.dram.rank0.preBackEnergy  24764579040                       # Energy for precharge background per rank (pJ)
system.mem_ctrls.dram.rank0.actPowerDownEnergy            0                       # Energy for active power-down per rank (pJ)
system.mem_ctrls.dram.rank0.prePowerDownEnergy            0                       # Energy for precharge power-down per rank (pJ)
system.mem_ctrls.dram.rank0.selfRefreshEnergy            0                       # Energy for self refresh per rank (pJ)
system.mem_ctrls.dram.rank0.totalEnergy   54035254260                       # Total energy per rank (pJ)
system.mem_ctrls.dram.rank0.averagePower   494.717844                       # Core power per rank (mW)
system.mem_ctrls.dram.rank0.totalIdleTime            0                       # Total Idle time Per DRAM Rank
system.mem_ctrls.dram.rank0.pwrStateTime::IDLE  64191444500                       # Time in different power states
system.mem_ctrls.dram.rank0.pwrStateTime::REF   3647020000                       # Time in different power states
system.mem_ctrls.dram.rank0.pwrStateTime::SREF            0                       # Time in different power states
system.mem_ctrls.dram.rank0.pwrStateTime::PRE_PDN            0                       # Time in different power states
system.mem_ctrls.dram.rank0.pwrStateTime::ACT  41385924500                       # Time in different power states
system.mem_ctrls.dram.rank0.pwrStateTime::ACT_PDN            0                       # Time in different power states
system.mem_ctrls.dram.rank1.actEnergy        61996620                       # Energy for activate commands per rank (pJ)
system.mem_ctrls.dram.rank1.preEnergy        32948190                       # Energy for precharge commands per rank (pJ)
system.mem_ctrls.dram.rank1.readEnergy      137823420                       # Energy for read commands per rank (pJ)
system.mem_ctrls.dram.rank1.writeEnergy      14005260                       # Energy for write commands per rank (pJ)
system.mem_ctrls.dram.rank1.refreshEnergy 8621555280.000002                       # Energy for refresh commands per rank (pJ)
system.mem_ctrls.dram.rank1.actBackEnergy  20329128090                       # Energy for active background per rank (pJ)
system.mem_ctrls.dram.rank1.preBackEnergy  24822900000                       # Energy for precharge background per rank (pJ)
system.mem_ctrls.dram.rank1.actPowerDownEnergy            0                       # Energy for active power-down per rank (pJ)
system.mem_ctrls.dram.rank1.prePowerDownEnergy            0                       # Energy for precharge power-down per rank (pJ)
system.mem_ctrls.dram.rank1.selfRefreshEnergy            0                       # Energy for self refresh per rank (pJ)
system.mem_ctrls.dram.rank1.totalEnergy   54020356860                       # Total energy per rank (pJ)
system.mem_ctrls.dram.rank1.averagePower   494.581452                       # Core power per rank (mW)
system.mem_ctrls.dram.rank1.totalIdleTime            0                       # Total Idle time Per DRAM Rank
system.mem_ctrls.dram.rank1.pwrStateTime::IDLE  64345198750                       # Time in different power states
system.mem_ctrls.dram.rank1.pwrStateTime::REF   3647020000                       # Time in different power states
system.mem_ctrls.dram.rank1.pwrStateTime::SREF            0                       # Time in different power states
system.mem_ctrls.dram.rank1.pwrStateTime::PRE_PDN            0                       # Time in different power states
system.mem_ctrls.dram.rank1.pwrStateTime::ACT  41232170250                       # Time in different power states
system.mem_ctrls.dram.rank1.pwrStateTime::ACT_PDN            0                       # Time in different power states
system.mem_ctrls.power_state.pwrStateResidencyTicks::UNDEFINED 109224389000                       # Cumulative time (in ticks) in various power states
system.membus.trans_dist::ReadResp                882                       # Transaction distribution
system.membus.trans_dist::WritebackDirty         5489                       # Transaction distribution
system.membus.trans_dist::CleanEvict              168                       # Transaction distribution
system.membus.trans_dist::ReadExReq             37940                       # Transaction distribution
system.membus.trans_dist::ReadExResp            37940                       # Transaction distribution
system.membus.trans_dist::ReadSharedReq           882                       # Transaction distribution
system.membus.pkt_count_system.l2.mem_side_port::system.mem_ctrls.port        83301                       # Packet count per connected requestor and responder (bytes)
system.membus.pkt_count::total                  83301                       # Packet count per connected requestor and responder (bytes)
system.membus.pkt_size_system.l2.mem_side_port::system.mem_ctrls.port      2835904                       # Cumulative packet size per connected requestor and responder (bytes)
system.membus.pkt_size::total                 2835904                       # Cumulative packet size per connected requestor and responder (bytes)
system.membus.snoops                                0                       # Total snoops (count)
system.membus.snoopTraffic                          0                       # Total snoop traffic (bytes)
system.membus.snoop_fanout::samples             38822                       # Request fanout histogram
system.membus.snoop_fanout::mean                    0                       # Request fanout histogram
system.membus.snoop_fanout::stdev                   0                       # Request fanout histogram
system.membus.snoop_fanout::underflows              0      0.00%      0.00% # Request fanout histogram
system.membus.snoop_fanout::0                   38822    100.00%    100.00% # Request fanout histogram
system.membus.snoop_fanout::1                       0      0.00%    100.00% # Request fanout histogram
system.membus.snoop_fanout::overflows               0      0.00%    100.00% # Request fanout histogram
system.membus.snoop_fanout::min_value               0                       # Request fanout histogram
system.membus.snoop_fanout::max_value               0                       # Request fanout histogram
system.membus.snoop_fanout::total               38822                       # Request fanout histogram
system.membus.power_state.pwrStateResidencyTicks::UNDEFINED 109224389000                       # Cumulative time (in ticks) in various power states
system.membus.reqLayer0.occupancy            66435000                       # Layer occupancy (ticks)
system.membus.reqLayer0.utilization               0.1                       # Layer utilization (%)
system.membus.respLayer1.occupancy          207653000                       # Layer occupancy (ticks)
system.membus.respLayer1.utilization              0.2                       # Layer utilization (%)
system.tol2bus.trans_dist::ReadResp             15363                       # Transaction distribution
system.tol2bus.trans_dist::WritebackDirty        53966                       # Transaction distribution
system.tol2bus.trans_dist::WritebackClean          607                       # Transaction distribution
system.tol2bus.trans_dist::CleanEvict            3396                       # Transaction distribution
system.tol2bus.trans_dist::ReadExReq            37963                       # Transaction distribution
system.tol2bus.trans_dist::ReadExResp           37963                       # Transaction distribution
system.tol2bus.trans_dist::ReadCleanReq           997                       # Transaction distribution
system.tol2bus.trans_dist::ReadSharedReq        14366                       # Transaction distribution
system.tol2bus.pkt_count_system.cpu.icache.mem_side_port::system.l2.cpu_side_port         2601                       # Packet count per connected requestor and responder (bytes)
system.tol2bus.pkt_count_system.cpu.dcache.mem_side_port::system.l2.cpu_side_port       155963                       # Packet count per connected requestor and responder (bytes)
system.tol2bus.pkt_count::total                158564                       # Packet count per connected requestor and responder (bytes)
system.tol2bus.pkt_size_system.cpu.icache.mem_side_port::system.l2.cpu_side_port       102656                       # Cumulative packet size per connected requestor and responder (bytes)
system.tol2bus.pkt_size_system.cpu.dcache.mem_side_port::system.l2.cpu_side_port      6451584                       # Cumulative packet size per connected requestor and responder (bytes)
system.tol2bus.pkt_size::total                6554240                       # Cumulative packet size per connected requestor and responder (bytes)
system.tol2bus.snoops                            6057                       # Total snoops (count)
system.tol2bus.snoopTraffic                    351296                       # Total snoop traffic (bytes)
system.tol2bus.snoop_fanout::samples            59383                       # Request fanout histogram
system.tol2bus.snoop_fanout::mean            0.007073                       # Request fanout histogram
system.tol2bus.snoop_fanout::stdev           0.083802                       # Request fanout histogram
system.tol2bus.snoop_fanout::underflows             0      0.00%      0.00% # Request fanout histogram
system.tol2bus.snoop_fanout::0                  58963     99.29%     99.29% # Request fanout histogram
system.tol2bus.snoop_fanout::1                    420      0.71%    100.00% # Request fanout histogram
system.tol2bus.snoop_fanout::2                      0      0.00%    100.00% # Request fanout histogram
system.tol2bus.snoop_fanout::overflows              0      0.00%    100.00% # Request fanout histogram
system.tol2bus.snoop_fanout::min_value              0                       # Request fanout histogram
system.tol2bus.snoop_fanout::max_value              1                       # Request fanout histogram
system.tol2bus.snoop_fanout::total              59383                       # Request fanout histogram
system.tol2bus.power_state.pwrStateResidencyTicks::UNDEFINED 109224389000                       # Cumulative time (in ticks) in various power states
system.tol2bus.reqLayer0.occupancy          203406000                       # Layer occupancy (ticks)
system.tol2bus.reqLayer0.utilization              0.2                       # Layer utilization (%)
system.tol2bus.respLayer0.occupancy           2991000                       # Layer occupancy (ticks)
system.tol2bus.respLayer0.utilization             0.0                       # Layer utilization (%)
system.tol2bus.respLayer1.occupancy         156987999                       # Layer occupancy (ticks)
system.tol2bus.respLayer1.utilization             0.1                       # Layer utilization (%)
system.voltage_domain.voltage                       1                       # Voltage in Volts

---------- End Simulation Statistics   ----------
