
---------- Begin Simulation Statistics ----------
final_tick                               118548333000                       # Number of ticks from beginning of simulation (restored from checkpoints and never reset)
host_inst_rate                                 179085                       # Simulator instruction rate (inst/s)
host_mem_usage                                 718936                       # Number of bytes of host memory used
host_op_rate                                   181095                       # Simulator op (including micro ops) rate (op/s)
host_seconds                                   558.40                       # Real time elapsed on the host
host_tick_rate                              212301780                       # Simulator tick rate (ticks/s)
sim_freq                                 1000000000000                       # Frequency of simulated ticks
sim_insts                                   100000000                       # Number of instructions simulated
sim_ops                                     101122355                       # Number of ops (including micro ops) simulated
sim_seconds                                  0.118548                       # Number of seconds simulated
sim_ticks                                118548333000                       # Number of ticks simulated
system.cpu.committedInsts                   100000000                       # Number of instructions committed
system.cpu.committedOps                     101122355                       # Number of ops (including micro ops) committed
system.cpu.cpi                               1.185483                       # CPI: cycles per instruction
system.cpu.discardedOps                        956308                       # Number of ops (including micro ops) which were discarded before commit
system.cpu.idleCycles                         2819120                       # Total number of cycles that the object has spent stopped
system.cpu.ipc                               0.843538                       # IPC: instructions per cycle
system.cpu.numCycles                        118548333                       # number of cpu cycles simulated
system.cpu.numFetchSuspends                         0                       # Number of times Execute suspended instruction fetching
system.cpu.numWorkItemsCompleted                    0                       # number of work items this cpu completed
system.cpu.numWorkItemsStarted                      0                       # number of work items this cpu started
system.cpu.op_class_0::No_OpClass                   0      0.00%      0.00% # Class of committed instruction
system.cpu.op_class_0::IntAlu                55111255     54.50%     54.50% # Class of committed instruction
system.cpu.op_class_0::IntMult                 167845      0.17%     54.67% # Class of committed instruction
system.cpu.op_class_0::IntDiv                       0      0.00%     54.67% # Class of committed instruction
system.cpu.op_class_0::FloatAdd                     0      0.00%     54.67% # Class of committed instruction
system.cpu.op_class_0::FloatCmp                     0      0.00%     54.67% # Class of committed instruction
system.cpu.op_class_0::FloatCvt                     0      0.00%     54.67% # Class of committed instruction
system.cpu.op_class_0::FloatMult                    0      0.00%     54.67% # Class of committed instruction
system.cpu.op_class_0::FloatMultAcc                 0      0.00%     54.67% # Class of committed instruction
system.cpu.op_class_0::FloatDiv                     0      0.00%     54.67% # Class of committed instruction
system.cpu.op_class_0::FloatMisc                    0      0.00%     54.67% # Class of committed instruction
system.cpu.op_class_0::FloatSqrt                    0      0.00%     54.67% # Class of committed instruction
system.cpu.op_class_0::SimdAdd                    380      0.00%     54.67% # Class of committed instruction
system.cpu.op_class_0::SimdAddAcc                   0      0.00%     54.67% # Class of committed instruction
system.cpu.op_class_0::SimdAlu                    470      0.00%     54.67% # Class of committed instruction
system.cpu.op_class_0::SimdCmp                    382      0.00%     54.67% # Class of committed instruction
system.cpu.op_class_0::SimdCvt                      0      0.00%     54.67% # Class of committed instruction
system.cpu.op_class_0::SimdMisc                    53      0.00%     54.67% # Class of committed instruction
system.cpu.op_class_0::SimdMult                     0      0.00%     54.67% # Class of committed instruction
system.cpu.op_class_0::SimdMultAcc                  0      0.00%     54.67% # Class of committed instruction
system.cpu.op_class_0::SimdShift                    0      0.00%     54.67% # Class of committed instruction
system.cpu.op_class_0::SimdShiftAcc                 0      0.00%     54.67% # Class of committed instruction
system.cpu.op_class_0::SimdDiv                      0      0.00%     54.67% # Class of committed instruction
system.cpu.op_class_0::SimdSqrt                     0      0.00%     54.67% # Class of committed instruction
system.cpu.op_class_0::SimdFloatAdd            282752      0.28%     54.95% # Class of committed instruction
system.cpu.op_class_0::SimdFloatAlu                 0      0.00%     54.95% # Class of committed instruction
system.cpu.op_class_0::SimdFloatCmp            266991      0.26%     55.21% # Class of committed instruction
system.cpu.op_class_0::SimdFloatCvt            163440      0.16%     55.37% # Class of committed instruction
system.cpu.op_class_0::SimdFloatDiv             54308      0.05%     55.43% # Class of committed instruction
system.cpu.op_class_0::SimdFloatMisc           505318      0.50%     55.93% # Class of committed instruction
system.cpu.op_class_0::SimdFloatMult            36718      0.04%     55.96% # Class of committed instruction
system.cpu.op_class_0::SimdFloatMultAcc         10949      0.01%     55.97% # Class of committed instruction
system.cpu.op_class_0::SimdFloatSqrt                0      0.00%     55.97% # Class of committed instruction
system.cpu.op_class_0::SimdReduceAdd                0      0.00%     55.97% # Class of committed instruction
system.cpu.op_class_0::SimdReduceAlu                0      0.00%     55.97% # Class of committed instruction
system.cpu.op_class_0::SimdReduceCmp                0      0.00%     55.97% # Class of committed instruction
system.cpu.op_class_0::SimdFloatReduceAdd            0      0.00%     55.97% # Class of committed instruction
system.cpu.op_class_0::SimdFloatReduceCmp            0      0.00%     55.97% # Class of committed instruction
system.cpu.op_class_0::SimdAes                      0      0.00%     55.97% # Class of committed instruction
system.cpu.op_class_0::SimdAesMix                   0      0.00%     55.97% # Class of committed instruction
system.cpu.op_class_0::SimdSha1Hash                 0      0.00%     55.97% # Class of committed instruction
system.cpu.op_class_0::SimdSha1Hash2                0      0.00%     55.97% # Class of committed instruction
system.cpu.op_class_0::SimdSha256Hash               0      0.00%     55.97% # Class of committed instruction
system.cpu.op_class_0::SimdSha256Hash2              0      0.00%     55.97% # Class of committed instruction
system.cpu.op_class_0::SimdShaSigma2                0      0.00%     55.97% # Class of committed instruction
system.cpu.op_class_0::SimdShaSigma3                0      0.00%     55.97% # Class of committed instruction
system.cpu.op_class_0::SimdPredAlu                  0      0.00%     55.97% # Class of committed instruction
system.cpu.op_class_0::MemRead               38138347     37.72%     93.69% # Class of committed instruction
system.cpu.op_class_0::MemWrite               6383147      6.31%    100.00% # Class of committed instruction
system.cpu.op_class_0::FloatMemRead                 0      0.00%    100.00% # Class of committed instruction
system.cpu.op_class_0::FloatMemWrite                0      0.00%    100.00% # Class of committed instruction
system.cpu.op_class_0::IprAccess                    0      0.00%    100.00% # Class of committed instruction
system.cpu.op_class_0::InstPrefetch                 0      0.00%    100.00% # Class of committed instruction
system.cpu.op_class_0::total                101122355                       # Class of committed instruction
system.cpu.tickCycles                       115729213                       # Number of cycles that the object actually ticked
system.cpu.workload.numSyscalls                    33                       # Number of system calls
system.membus.snoop_filter.hit_multi_requests            0                       # Number of requests hitting in the snoop filter with multiple (>1) holders of the requested data.
system.membus.snoop_filter.hit_multi_snoops            0                       # Number of snoops hitting in the snoop filter with multiple (>1) holders of the requested data.
system.membus.snoop_filter.hit_single_requests            0                       # Number of requests hitting in the snoop filter with a single holder of the requested data.
system.membus.snoop_filter.hit_single_snoops            0                       # Number of snoops hitting in the snoop filter with a single holder of the requested data.
system.membus.snoop_filter.tot_requests          1688                       # Total number of requests made to the snoop filter.
system.membus.snoop_filter.tot_snoops               0                       # Total number of snoops made to the snoop filter.
system.tol2bus.snoop_filter.hit_multi_requests         1830                       # Number of requests hitting in the snoop filter with multiple (>1) holders of the requested data.
system.tol2bus.snoop_filter.hit_multi_snoops            0                       # Number of snoops hitting in the snoop filter with multiple (>1) holders of the requested data.
system.tol2bus.snoop_filter.hit_single_requests        39783                       # Number of requests hitting in the snoop filter with a single holder of the requested data.
system.tol2bus.snoop_filter.hit_single_snoops            0                       # Number of snoops hitting in the snoop filter with a single holder of the requested data.
system.tol2bus.snoop_filter.tot_requests        79934                       # Total number of requests made to the snoop filter.
system.tol2bus.snoop_filter.tot_snoops              0                       # Total number of snoops made to the snoop filter.
system.clk_domain.clock                          1000                       # Clock period in ticks
system.cpu.branchPred.lookups                 6511051                       # Number of BP lookups
system.cpu.branchPred.condPredicted           5101684                       # Number of conditional branches predicted
system.cpu.branchPred.condIncorrect            345880                       # Number of conditional branches incorrect
system.cpu.branchPred.BTBLookups              4088047                       # Number of BTB lookups
system.cpu.branchPred.BTBHits                 4081793                       # Number of BTB hits
system.cpu.branchPred.BTBHitPct             99.847017                       # BTB Hit Percentage
system.cpu.branchPred.RASUsed                  313235                       # Number of times the RAS was used to get a target.
system.cpu.branchPred.RASIncorrect                  4                       # Number of incorrect RAS predictions.
system.cpu.branchPred.indirectLookups          674742                       # Number of indirect predictor lookups.
system.cpu.branchPred.indirectHits             102860                       # Number of indirect target hits.
system.cpu.branchPred.indirectMisses           571882                       # Number of indirect misses.
system.cpu.branchPred.indirectMispredicted        34898                       # Number of mispredicted indirect branches.
system.cpu.dcache.demand_hits::.cpu.data     43832713                       # number of demand (read+write) hits
system.cpu.dcache.demand_hits::total         43832713                       # number of demand (read+write) hits
system.cpu.dcache.overall_hits::.cpu.data     43841367                       # number of overall hits
system.cpu.dcache.overall_hits::total        43841367                       # number of overall hits
system.cpu.dcache.demand_misses::.cpu.data        37928                       # number of demand (read+write) misses
system.cpu.dcache.demand_misses::total          37928                       # number of demand (read+write) misses
system.cpu.dcache.overall_misses::.cpu.data        37979                       # number of overall misses
system.cpu.dcache.overall_misses::total         37979                       # number of overall misses
system.cpu.dcache.demand_miss_latency::.cpu.data   1411582000                       # number of demand (read+write) miss cycles
system.cpu.dcache.demand_miss_latency::total   1411582000                       # number of demand (read+write) miss cycles
system.cpu.dcache.overall_miss_latency::.cpu.data   1411582000                       # number of overall miss cycles
system.cpu.dcache.overall_miss_latency::total   1411582000                       # number of overall miss cycles
system.cpu.dcache.demand_accesses::.cpu.data     43870641                       # number of demand (read+write) accesses
system.cpu.dcache.demand_accesses::total     43870641                       # number of demand (read+write) accesses
system.cpu.dcache.overall_accesses::.cpu.data     43879346                       # number of overall (read+write) accesses
system.cpu.dcache.overall_accesses::total     43879346                       # number of overall (read+write) accesses
system.cpu.dcache.demand_miss_rate::.cpu.data     0.000865                       # miss rate for demand accesses
system.cpu.dcache.demand_miss_rate::total     0.000865                       # miss rate for demand accesses
system.cpu.dcache.overall_miss_rate::.cpu.data     0.000866                       # miss rate for overall accesses
system.cpu.dcache.overall_miss_rate::total     0.000866                       # miss rate for overall accesses
system.cpu.dcache.demand_avg_miss_latency::.cpu.data 37217.411938                       # average overall miss latency
system.cpu.dcache.demand_avg_miss_latency::total 37217.411938                       # average overall miss latency
system.cpu.dcache.overall_avg_miss_latency::.cpu.data 37167.434635                       # average overall miss latency
system.cpu.dcache.overall_avg_miss_latency::total 37167.434635                       # average overall miss latency
system.cpu.dcache.blocked_cycles::no_mshrs            0                       # number of cycles access was blocked
system.cpu.dcache.blocked_cycles::no_targets            0                       # number of cycles access was blocked
system.cpu.dcache.blocked::no_mshrs                 0                       # number of cycles access was blocked
system.cpu.dcache.blocked::no_targets               0                       # number of cycles access was blocked
system.cpu.dcache.avg_blocked_cycles::no_mshrs          nan                       # average number of cycles each access was blocked
system.cpu.dcache.avg_blocked_cycles::no_targets          nan                       # average number of cycles each access was blocked
system.cpu.dcache.writebacks::.writebacks        32886                       # number of writebacks
system.cpu.dcache.writebacks::total             32886                       # number of writebacks
system.cpu.dcache.demand_mshr_hits::.cpu.data         3450                       # number of demand (read+write) MSHR hits
system.cpu.dcache.demand_mshr_hits::total         3450                       # number of demand (read+write) MSHR hits
system.cpu.dcache.overall_mshr_hits::.cpu.data         3450                       # number of overall MSHR hits
system.cpu.dcache.overall_mshr_hits::total         3450                       # number of overall MSHR hits
system.cpu.dcache.demand_mshr_misses::.cpu.data        34478                       # number of demand (read+write) MSHR misses
system.cpu.dcache.demand_mshr_misses::total        34478                       # number of demand (read+write) MSHR misses
system.cpu.dcache.overall_mshr_misses::.cpu.data        34503                       # number of overall MSHR misses
system.cpu.dcache.overall_mshr_misses::total        34503                       # number of overall MSHR misses
system.cpu.dcache.demand_mshr_miss_latency::.cpu.data   1154907000                       # number of demand (read+write) MSHR miss cycles
system.cpu.dcache.demand_mshr_miss_latency::total   1154907000                       # number of demand (read+write) MSHR miss cycles
system.cpu.dcache.overall_mshr_miss_latency::.cpu.data   1158041000                       # number of overall MSHR miss cycles
system.cpu.dcache.overall_mshr_miss_latency::total   1158041000                       # number of overall MSHR miss cycles
system.cpu.dcache.demand_mshr_miss_rate::.cpu.data     0.000786                       # mshr miss rate for demand accesses
system.cpu.dcache.demand_mshr_miss_rate::total     0.000786                       # mshr miss rate for demand accesses
system.cpu.dcache.overall_mshr_miss_rate::.cpu.data     0.000786                       # mshr miss rate for overall accesses
system.cpu.dcache.overall_mshr_miss_rate::total     0.000786                       # mshr miss rate for overall accesses
system.cpu.dcache.demand_avg_mshr_miss_latency::.cpu.data 33496.925576                       # average overall mshr miss latency
system.cpu.dcache.demand_avg_mshr_miss_latency::total 33496.925576                       # average overall mshr miss latency
system.cpu.dcache.overall_avg_mshr_miss_latency::.cpu.data 33563.487233                       # average overall mshr miss latency
system.cpu.dcache.overall_avg_mshr_miss_latency::total 33563.487233                       # average overall mshr miss latency
system.cpu.dcache.replacements                  34247                       # number of replacements
system.cpu.dcache.ReadReq_hits::.cpu.data     37526564                       # number of ReadReq hits
system.cpu.dcache.ReadReq_hits::total        37526564                       # number of ReadReq hits
system.cpu.dcache.ReadReq_misses::.cpu.data        19248                       # number of ReadReq misses
system.cpu.dcache.ReadReq_misses::total         19248                       # number of ReadReq misses
system.cpu.dcache.ReadReq_miss_latency::.cpu.data    696144000                       # number of ReadReq miss cycles
system.cpu.dcache.ReadReq_miss_latency::total    696144000                       # number of ReadReq miss cycles
system.cpu.dcache.ReadReq_accesses::.cpu.data     37545812                       # number of ReadReq accesses(hits+misses)
system.cpu.dcache.ReadReq_accesses::total     37545812                       # number of ReadReq accesses(hits+misses)
system.cpu.dcache.ReadReq_miss_rate::.cpu.data     0.000513                       # miss rate for ReadReq accesses
system.cpu.dcache.ReadReq_miss_rate::total     0.000513                       # miss rate for ReadReq accesses
system.cpu.dcache.ReadReq_avg_miss_latency::.cpu.data 36167.082294                       # average ReadReq miss latency
system.cpu.dcache.ReadReq_avg_miss_latency::total 36167.082294                       # average ReadReq miss latency
system.cpu.dcache.ReadReq_mshr_hits::.cpu.data         1774                       # number of ReadReq MSHR hits
system.cpu.dcache.ReadReq_mshr_hits::total         1774                       # number of ReadReq MSHR hits
system.cpu.dcache.ReadReq_mshr_misses::.cpu.data        17474                       # number of ReadReq MSHR misses
system.cpu.dcache.ReadReq_mshr_misses::total        17474                       # number of ReadReq MSHR misses
system.cpu.dcache.ReadReq_mshr_miss_latency::.cpu.data    579348000                       # number of ReadReq MSHR miss cycles
system.cpu.dcache.ReadReq_mshr_miss_latency::total    579348000                       # number of ReadReq MSHR miss cycles
system.cpu.dcache.ReadReq_mshr_miss_rate::.cpu.data     0.000465                       # mshr miss rate for ReadReq accesses
system.cpu.dcache.ReadReq_mshr_miss_rate::total     0.000465                       # mshr miss rate for ReadReq accesses
system.cpu.dcache.ReadReq_avg_mshr_miss_latency::.cpu.data 33154.858647                       # average ReadReq mshr miss latency
system.cpu.dcache.ReadReq_avg_mshr_miss_latency::total 33154.858647                       # average ReadReq mshr miss latency
system.cpu.dcache.WriteReq_hits::.cpu.data      6306149                       # number of WriteReq hits
system.cpu.dcache.WriteReq_hits::total        6306149                       # number of WriteReq hits
system.cpu.dcache.WriteReq_misses::.cpu.data        18680                       # number of WriteReq misses
system.cpu.dcache.WriteReq_misses::total        18680                       # number of WriteReq misses
system.cpu.dcache.WriteReq_miss_latency::.cpu.data    715438000                       # number of WriteReq miss cycles
system.cpu.dcache.WriteReq_miss_latency::total    715438000                       # number of WriteReq miss cycles
system.cpu.dcache.WriteReq_accesses::.cpu.data      6324829                       # number of WriteReq accesses(hits+misses)
system.cpu.dcache.WriteReq_accesses::total      6324829                       # number of WriteReq accesses(hits+misses)
system.cpu.dcache.WriteReq_miss_rate::.cpu.data     0.002953                       # miss rate for WriteReq accesses
system.cpu.dcache.WriteReq_miss_rate::total     0.002953                       # miss rate for WriteReq accesses
system.cpu.dcache.WriteReq_avg_miss_latency::.cpu.data 38299.678801                       # average WriteReq miss latency
system.cpu.dcache.WriteReq_avg_miss_latency::total 38299.678801                       # average WriteReq miss latency
system.cpu.dcache.WriteReq_mshr_hits::.cpu.data         1676                       # number of WriteReq MSHR hits
system.cpu.dcache.WriteReq_mshr_hits::total         1676                       # number of WriteReq MSHR hits
system.cpu.dcache.WriteReq_mshr_misses::.cpu.data        17004                       # number of WriteReq MSHR misses
system.cpu.dcache.WriteReq_mshr_misses::total        17004                       # number of WriteReq MSHR misses
system.cpu.dcache.WriteReq_mshr_miss_latency::.cpu.data    575559000                       # number of WriteReq MSHR miss cycles
system.cpu.dcache.WriteReq_mshr_miss_latency::total    575559000                       # number of WriteReq MSHR miss cycles
system.cpu.dcache.WriteReq_mshr_miss_rate::.cpu.data     0.002688                       # mshr miss rate for WriteReq accesses
system.cpu.dcache.WriteReq_mshr_miss_rate::total     0.002688                       # mshr miss rate for WriteReq accesses
system.cpu.dcache.WriteReq_avg_mshr_miss_latency::.cpu.data 33848.447424                       # average WriteReq mshr miss latency
system.cpu.dcache.WriteReq_avg_mshr_miss_latency::total 33848.447424                       # average WriteReq mshr miss latency
system.cpu.dcache.SoftPFReq_hits::.cpu.data         8654                       # number of SoftPFReq hits
system.cpu.dcache.SoftPFReq_hits::total          8654                       # number of SoftPFReq hits
system.cpu.dcache.SoftPFReq_misses::.cpu.data           51                       # number of SoftPFReq misses
system.cpu.dcache.SoftPFReq_misses::total           51                       # number of SoftPFReq misses
system.cpu.dcache.SoftPFReq_accesses::.cpu.data         8705                       # number of SoftPFReq accesses(hits+misses)
system.cpu.dcache.SoftPFReq_accesses::total         8705                       # number of SoftPFReq accesses(hits+misses)
system.cpu.dcache.SoftPFReq_miss_rate::.cpu.data     0.005859                       # miss rate for SoftPFReq accesses
system.cpu.dcache.SoftPFReq_miss_rate::total     0.005859                       # miss rate for SoftPFReq accesses
system.cpu.dcache.SoftPFReq_mshr_misses::.cpu.data           25                       # number of SoftPFReq MSHR misses
system.cpu.dcache.SoftPFReq_mshr_misses::total           25                       # number of SoftPFReq MSHR misses
system.cpu.dcache.SoftPFReq_mshr_miss_latency::.cpu.data      3134000                       # number of SoftPFReq MSHR miss cycles
system.cpu.dcache.SoftPFReq_mshr_miss_latency::total      3134000                       # number of SoftPFReq MSHR miss cycles
system.cpu.dcache.SoftPFReq_mshr_miss_rate::.cpu.data     0.002872                       # mshr miss rate for SoftPFReq accesses
system.cpu.dcache.SoftPFReq_mshr_miss_rate::total     0.002872                       # mshr miss rate for SoftPFReq accesses
system.cpu.dcache.SoftPFReq_avg_mshr_miss_latency::.cpu.data       125360                       # average SoftPFReq mshr miss latency
system.cpu.dcache.SoftPFReq_avg_mshr_miss_latency::total       125360                       # average SoftPFReq mshr miss latency
system.cpu.dcache.LoadLockedReq_hits::.cpu.data          166                       # number of LoadLockedReq hits
system.cpu.dcache.LoadLockedReq_hits::total          166                       # number of LoadLockedReq hits
system.cpu.dcache.LoadLockedReq_accesses::.cpu.data          166                       # number of LoadLockedReq accesses(hits+misses)
system.cpu.dcache.LoadLockedReq_accesses::total          166                       # number of LoadLockedReq accesses(hits+misses)
system.cpu.dcache.StoreCondReq_hits::.cpu.data          166                       # number of StoreCondReq hits
system.cpu.dcache.StoreCondReq_hits::total          166                       # number of StoreCondReq hits
system.cpu.dcache.StoreCondReq_accesses::.cpu.data          166                       # number of StoreCondReq accesses(hits+misses)
system.cpu.dcache.StoreCondReq_accesses::total          166                       # number of StoreCondReq accesses(hits+misses)
system.cpu.dcache.power_state.pwrStateResidencyTicks::UNDEFINED 118548333000                       # Cumulative time (in ticks) in various power states
system.cpu.dcache.tags.tagsinuse           255.131193                       # Cycle average of tags in use
system.cpu.dcache.tags.total_refs            43876202                       # Total number of references to valid blocks.
system.cpu.dcache.tags.sampled_refs             34503                       # Sample count of references to valid blocks.
system.cpu.dcache.tags.avg_refs           1271.663392                       # Average number of references to valid blocks.
system.cpu.dcache.tags.warmup_cycle            255000                       # Cycle when the warmup percentage was hit.
system.cpu.dcache.tags.occ_blocks::.cpu.data   255.131193                       # Average occupied blocks per requestor
system.cpu.dcache.tags.occ_percent::.cpu.data     0.996606                       # Average percentage of cache occupancy
system.cpu.dcache.tags.occ_percent::total     0.996606                       # Average percentage of cache occupancy
system.cpu.dcache.tags.occ_task_id_blocks::1024          256                       # Occupied blocks per task id
system.cpu.dcache.tags.age_task_id_blocks_1024::0            3                       # Occupied blocks per task id
system.cpu.dcache.tags.age_task_id_blocks_1024::1           19                       # Occupied blocks per task id
system.cpu.dcache.tags.age_task_id_blocks_1024::2          105                       # Occupied blocks per task id
system.cpu.dcache.tags.age_task_id_blocks_1024::3          125                       # Occupied blocks per task id
system.cpu.dcache.tags.age_task_id_blocks_1024::4            4                       # Occupied blocks per task id
system.cpu.dcache.tags.occ_task_id_percent::1024            1                       # Percentage of cache occupancy per task id
system.cpu.dcache.tags.tag_accesses          87793859                       # Number of tag accesses
system.cpu.dcache.tags.data_accesses         87793859                       # Number of data accesses
system.cpu.dcache.tags.power_state.pwrStateResidencyTicks::UNDEFINED 118548333000                       # Cumulative time (in ticks) in various power states
system.cpu.dtb.instHits                             0                       # ITB inst hits
system.cpu.dtb.instMisses                           0                       # ITB inst misses
system.cpu.dtb.readHits                             0                       # DTB read hits
system.cpu.dtb.readMisses                           0                       # DTB read misses
system.cpu.dtb.writeHits                            0                       # DTB write hits
system.cpu.dtb.writeMisses                          0                       # DTB write misses
system.cpu.dtb.inserts                              0                       # Number of times an entry is inserted into the TLB
system.cpu.dtb.flushTlb                             0                       # Number of times complete TLB was flushed
system.cpu.dtb.flushTlbMva                          0                       # Number of times TLB was flushed by MVA
system.cpu.dtb.flushTlbMvaAsid                      0                       # Number of times TLB was flushed by MVA & ASID
system.cpu.dtb.flushTlbAsid                         0                       # Number of times TLB was flushed by ASID
system.cpu.dtb.flushedEntries                       0                       # Number of entries that have been flushed from TLB
system.cpu.dtb.alignFaults                          0                       # Number of TLB faults due to alignment restrictions
system.cpu.dtb.prefetchFaults                       0                       # Number of TLB faults due to prefetch
system.cpu.dtb.domainFaults                         0                       # Number of TLB faults due to domain restrictions
system.cpu.dtb.permsFaults                          0                       # Number of TLB faults due to permissions restrictions
system.cpu.dtb.readAccesses                         0                       # DTB read accesses
system.cpu.dtb.writeAccesses                        0                       # DTB write accesses
system.cpu.dtb.instAccesses                         0                       # ITB inst accesses
system.cpu.dtb.hits                                 0                       # Total TLB (inst and data) hits
system.cpu.dtb.misses                               0                       # Total TLB (inst and data) misses
system.cpu.dtb.accesses                             0                       # Total TLB (inst and data) accesses
system.cpu.dtb.stage2_mmu.stage2_tlb.instHits            0                       # ITB inst hits
system.cpu.dtb.stage2_mmu.stage2_tlb.instMisses            0                       # ITB inst misses
system.cpu.dtb.stage2_mmu.stage2_tlb.readHits            0                       # DTB read hits
system.cpu.dtb.stage2_mmu.stage2_tlb.readMisses            0                       # DTB read misses
system.cpu.dtb.stage2_mmu.stage2_tlb.writeHits            0                       # DTB write hits
system.cpu.dtb.stage2_mmu.stage2_tlb.writeMisses            0                       # DTB write misses
system.cpu.dtb.stage2_mmu.stage2_tlb.inserts            0                       # Number of times an entry is inserted into the TLB
system.cpu.dtb.stage2_mmu.stage2_tlb.flushTlb            0                       # Number of times complete TLB was flushed
system.cpu.dtb.stage2_mmu.stage2_tlb.flushTlbMva            0                       # Number of times TLB was flushed by MVA
system.cpu.dtb.stage2_mmu.stage2_tlb.flushTlbMvaAsid            0                       # Number of times TLB was flushed by MVA & ASID
system.cpu.dtb.stage2_mmu.stage2_tlb.flushTlbAsid            0                       # Number of times TLB was flushed by ASID
system.cpu.dtb.stage2_mmu.stage2_tlb.flushedEntries            0                       # Number of entries that have been flushed from TLB
system.cpu.dtb.stage2_mmu.stage2_tlb.alignFaults            0                       # Number of TLB faults due to alignment restrictions
system.cpu.dtb.stage2_mmu.stage2_tlb.prefetchFaults            0                       # Number of TLB faults due to prefetch
system.cpu.dtb.stage2_mmu.stage2_tlb.domainFaults            0                       # Number of TLB faults due to domain restrictions
system.cpu.dtb.stage2_mmu.stage2_tlb.permsFaults            0                       # Number of TLB faults due to permissions restrictions
system.cpu.dtb.stage2_mmu.stage2_tlb.readAccesses            0                       # DTB read accesses
system.cpu.dtb.stage2_mmu.stage2_tlb.writeAccesses            0                       # DTB write accesses
system.cpu.dtb.stage2_mmu.stage2_tlb.instAccesses            0                       # ITB inst accesses
system.cpu.dtb.stage2_mmu.stage2_tlb.hits            0                       # Total TLB (inst and data) hits
system.cpu.dtb.stage2_mmu.stage2_tlb.misses            0                       # Total TLB (inst and data) misses
system.cpu.dtb.stage2_mmu.stage2_tlb.accesses            0                       # Total TLB (inst and data) accesses
system.cpu.dtb.stage2_mmu.stage2_tlb.walker.walks            0                       # Table walker walks requested
system.cpu.dtb.stage2_mmu.stage2_tlb.walker.requestOrigin_Requested::Data            0                       # Table walker requests started/completed, data/inst
system.cpu.dtb.stage2_mmu.stage2_tlb.walker.requestOrigin_Requested::Inst            0                       # Table walker requests started/completed, data/inst
system.cpu.dtb.stage2_mmu.stage2_tlb.walker.requestOrigin_Requested::total            0                       # Table walker requests started/completed, data/inst
system.cpu.dtb.stage2_mmu.stage2_tlb.walker.requestOrigin_Completed::Data            0                       # Table walker requests started/completed, data/inst
system.cpu.dtb.stage2_mmu.stage2_tlb.walker.requestOrigin_Completed::Inst            0                       # Table walker requests started/completed, data/inst
system.cpu.dtb.stage2_mmu.stage2_tlb.walker.requestOrigin_Completed::total            0                       # Table walker requests started/completed, data/inst
system.cpu.dtb.stage2_mmu.stage2_tlb.walker.requestOrigin::total            0                       # Table walker requests started/completed, data/inst
system.cpu.dtb.stage2_mmu.stage2_tlb.walker.power_state.pwrStateResidencyTicks::UNDEFINED 118548333000                       # Cumulative time (in ticks) in various power states
system.cpu.dtb.walker.walks                         0                       # Table walker walks requested
system.cpu.dtb.walker.requestOrigin_Requested::Data            0                       # Table walker requests started/completed, data/inst
system.cpu.dtb.walker.requestOrigin_Requested::Inst            0                       # Table walker requests started/completed, data/inst
system.cpu.dtb.walker.requestOrigin_Requested::total            0                       # Table walker requests started/completed, data/inst
system.cpu.dtb.walker.requestOrigin_Completed::Data            0                       # Table walker requests started/completed, data/inst
system.cpu.dtb.walker.requestOrigin_Completed::Inst            0                       # Table walker requests started/completed, data/inst
system.cpu.dtb.walker.requestOrigin_Completed::total            0                       # Table walker requests started/completed, data/inst
system.cpu.dtb.walker.requestOrigin::total            0                       # Table walker requests started/completed, data/inst
system.cpu.dtb.walker.power_state.pwrStateResidencyTicks::UNDEFINED 118548333000                       # Cumulative time (in ticks) in various power states
system.cpu.fetch2.intInstructions            48892301                       # Number of integer instructions successfully decoded
system.cpu.fetch2.fpInstructions                    0                       # Number of floating point instructions successfully decoded
system.cpu.fetch2.vecInstructions                   0                       # Number of SIMD instructions successfully decoded
system.cpu.fetch2.loadInstructions           40556036                       # Number of memory load instructions successfully decoded
system.cpu.fetch2.storeInstructions           6265582                       # Number of memory store instructions successfully decoded
system.cpu.fetch2.amoInstructions                   0                       # Number of memory atomic instructions successfully decoded
system.cpu.icache.demand_hits::.cpu.inst     14722481                       # number of demand (read+write) hits
system.cpu.icache.demand_hits::total         14722481                       # number of demand (read+write) hits
system.cpu.icache.overall_hits::.cpu.inst     14722481                       # number of overall hits
system.cpu.icache.overall_hits::total        14722481                       # number of overall hits
system.cpu.icache.demand_misses::.cpu.inst         5656                       # number of demand (read+write) misses
system.cpu.icache.demand_misses::total           5656                       # number of demand (read+write) misses
system.cpu.icache.overall_misses::.cpu.inst         5656                       # number of overall misses
system.cpu.icache.overall_misses::total          5656                       # number of overall misses
system.cpu.icache.demand_miss_latency::.cpu.inst    206032000                       # number of demand (read+write) miss cycles
system.cpu.icache.demand_miss_latency::total    206032000                       # number of demand (read+write) miss cycles
system.cpu.icache.overall_miss_latency::.cpu.inst    206032000                       # number of overall miss cycles
system.cpu.icache.overall_miss_latency::total    206032000                       # number of overall miss cycles
system.cpu.icache.demand_accesses::.cpu.inst     14728137                       # number of demand (read+write) accesses
system.cpu.icache.demand_accesses::total     14728137                       # number of demand (read+write) accesses
system.cpu.icache.overall_accesses::.cpu.inst     14728137                       # number of overall (read+write) accesses
system.cpu.icache.overall_accesses::total     14728137                       # number of overall (read+write) accesses
system.cpu.icache.demand_miss_rate::.cpu.inst     0.000384                       # miss rate for demand accesses
system.cpu.icache.demand_miss_rate::total     0.000384                       # miss rate for demand accesses
system.cpu.icache.overall_miss_rate::.cpu.inst     0.000384                       # miss rate for overall accesses
system.cpu.icache.overall_miss_rate::total     0.000384                       # miss rate for overall accesses
system.cpu.icache.demand_avg_miss_latency::.cpu.inst 36427.157001                       # average overall miss latency
system.cpu.icache.demand_avg_miss_latency::total 36427.157001                       # average overall miss latency
system.cpu.icache.overall_avg_miss_latency::.cpu.inst 36427.157001                       # average overall miss latency
system.cpu.icache.overall_avg_miss_latency::total 36427.157001                       # average overall miss latency
system.cpu.icache.blocked_cycles::no_mshrs            0                       # number of cycles access was blocked
system.cpu.icache.blocked_cycles::no_targets            0                       # number of cycles access was blocked
system.cpu.icache.blocked::no_mshrs                 0                       # number of cycles access was blocked
system.cpu.icache.blocked::no_targets               0                       # number of cycles access was blocked
system.cpu.icache.avg_blocked_cycles::no_mshrs          nan                       # average number of cycles each access was blocked
system.cpu.icache.avg_blocked_cycles::no_targets          nan                       # average number of cycles each access was blocked
system.cpu.icache.writebacks::.writebacks         5528                       # number of writebacks
system.cpu.icache.writebacks::total              5528                       # number of writebacks
system.cpu.icache.demand_mshr_misses::.cpu.inst         5656                       # number of demand (read+write) MSHR misses
system.cpu.icache.demand_mshr_misses::total         5656                       # number of demand (read+write) MSHR misses
system.cpu.icache.overall_mshr_misses::.cpu.inst         5656                       # number of overall MSHR misses
system.cpu.icache.overall_mshr_misses::total         5656                       # number of overall MSHR misses
system.cpu.icache.demand_mshr_miss_latency::.cpu.inst    194720000                       # number of demand (read+write) MSHR miss cycles
system.cpu.icache.demand_mshr_miss_latency::total    194720000                       # number of demand (read+write) MSHR miss cycles
system.cpu.icache.overall_mshr_miss_latency::.cpu.inst    194720000                       # number of overall MSHR miss cycles
system.cpu.icache.overall_mshr_miss_latency::total    194720000                       # number of overall MSHR miss cycles
system.cpu.icache.demand_mshr_miss_rate::.cpu.inst     0.000384                       # mshr miss rate for demand accesses
system.cpu.icache.demand_mshr_miss_rate::total     0.000384                       # mshr miss rate for demand accesses
system.cpu.icache.overall_mshr_miss_rate::.cpu.inst     0.000384                       # mshr miss rate for overall accesses
system.cpu.icache.overall_mshr_miss_rate::total     0.000384                       # mshr miss rate for overall accesses
system.cpu.icache.demand_avg_mshr_miss_latency::.cpu.inst 34427.157001                       # average overall mshr miss latency
system.cpu.icache.demand_avg_mshr_miss_latency::total 34427.157001                       # average overall mshr miss latency
system.cpu.icache.overall_avg_mshr_miss_latency::.cpu.inst 34427.157001                       # average overall mshr miss latency
system.cpu.icache.overall_avg_mshr_miss_latency::total 34427.157001                       # average overall mshr miss latency
system.cpu.icache.replacements                   5528                       # number of replacements
system.cpu.icache.ReadReq_hits::.cpu.inst     14722481                       # number of ReadReq hits
system.cpu.icache.ReadReq_hits::total        14722481                       # number of ReadReq hits
system.cpu.icache.ReadReq_misses::.cpu.inst         5656                       # number of ReadReq misses
system.cpu.icache.ReadReq_misses::total          5656                       # number of ReadReq misses
system.cpu.icache.ReadReq_miss_latency::.cpu.inst    206032000                       # number of ReadReq miss cycles
system.cpu.icache.ReadReq_miss_latency::total    206032000                       # number of ReadReq miss cycles
system.cpu.icache.ReadReq_accesses::.cpu.inst     14728137                       # number of ReadReq accesses(hits+misses)
system.cpu.icache.ReadReq_accesses::total     14728137                       # number of ReadReq accesses(hits+misses)
system.cpu.icache.ReadReq_miss_rate::.cpu.inst     0.000384                       # miss rate for ReadReq accesses
system.cpu.icache.ReadReq_miss_rate::total     0.000384                       # miss rate for ReadReq accesses
system.cpu.icache.ReadReq_avg_miss_latency::.cpu.inst 36427.157001                       # average ReadReq miss latency
system.cpu.icache.ReadReq_avg_miss_latency::total 36427.157001                       # average ReadReq miss latency
system.cpu.icache.ReadReq_mshr_misses::.cpu.inst         5656                       # number of ReadReq MSHR misses
system.cpu.icache.ReadReq_mshr_misses::total         5656                       # number of ReadReq MSHR misses
system.cpu.icache.ReadReq_mshr_miss_latency::.cpu.inst    194720000                       # number of ReadReq MSHR miss cycles
system.cpu.icache.ReadReq_mshr_miss_latency::total    194720000                       # number of ReadReq MSHR miss cycles
system.cpu.icache.ReadReq_mshr_miss_rate::.cpu.inst     0.000384                       # mshr miss rate for ReadReq accesses
system.cpu.icache.ReadReq_mshr_miss_rate::total     0.000384                       # mshr miss rate for ReadReq accesses
system.cpu.icache.ReadReq_avg_mshr_miss_latency::.cpu.inst 34427.157001                       # average ReadReq mshr miss latency
system.cpu.icache.ReadReq_avg_mshr_miss_latency::total 34427.157001                       # average ReadReq mshr miss latency
system.cpu.icache.power_state.pwrStateResidencyTicks::UNDEFINED 118548333000                       # Cumulative time (in ticks) in various power states
system.cpu.icache.tags.tagsinuse           127.980485                       # Cycle average of tags in use
system.cpu.icache.tags.total_refs            14728137                       # Total number of references to valid blocks.
system.cpu.icache.tags.sampled_refs              5656                       # Sample count of references to valid blocks.
system.cpu.icache.tags.avg_refs           2603.984618                       # Average number of references to valid blocks.
system.cpu.icache.tags.warmup_cycle            123000                       # Cycle when the warmup percentage was hit.
system.cpu.icache.tags.occ_blocks::.cpu.inst   127.980485                       # Average occupied blocks per requestor
system.cpu.icache.tags.occ_percent::.cpu.inst     0.999848                       # Average percentage of cache occupancy
system.cpu.icache.tags.occ_percent::total     0.999848                       # Average percentage of cache occupancy
system.cpu.icache.tags.occ_task_id_blocks::1024          128                       # Occupied blocks per task id
system.cpu.icache.tags.age_task_id_blocks_1024::2           15                       # Occupied blocks per task id
system.cpu.icache.tags.age_task_id_blocks_1024::3            5                       # Occupied blocks per task id
system.cpu.icache.tags.age_task_id_blocks_1024::4          108                       # Occupied blocks per task id
system.cpu.icache.tags.occ_task_id_percent::1024            1                       # Percentage of cache occupancy per task id
system.cpu.icache.tags.tag_accesses          29461930                       # Number of tag accesses
system.cpu.icache.tags.data_accesses         29461930                       # Number of data accesses
system.cpu.icache.tags.power_state.pwrStateResidencyTicks::UNDEFINED 118548333000                       # Cumulative time (in ticks) in various power states
system.cpu.itb.instHits                             0                       # ITB inst hits
system.cpu.itb.instMisses                           0                       # ITB inst misses
system.cpu.itb.readHits                             0                       # DTB read hits
system.cpu.itb.readMisses                           0                       # DTB read misses
system.cpu.itb.writeHits                            0                       # DTB write hits
system.cpu.itb.writeMisses                          0                       # DTB write misses
system.cpu.itb.inserts                              0                       # Number of times an entry is inserted into the TLB
system.cpu.itb.flushTlb                             0                       # Number of times complete TLB was flushed
system.cpu.itb.flushTlbMva                          0                       # Number of times TLB was flushed by MVA
system.cpu.itb.flushTlbMvaAsid                      0                       # Number of times TLB was flushed by MVA & ASID
system.cpu.itb.flushTlbAsid                         0                       # Number of times TLB was flushed by ASID
system.cpu.itb.flushedEntries                       0                       # Number of entries that have been flushed from TLB
system.cpu.itb.alignFaults                          0                       # Number of TLB faults due to alignment restrictions
system.cpu.itb.prefetchFaults                       0                       # Number of TLB faults due to prefetch
system.cpu.itb.domainFaults                         0                       # Number of TLB faults due to domain restrictions
system.cpu.itb.permsFaults                          0                       # Number of TLB faults due to permissions restrictions
system.cpu.itb.readAccesses                         0                       # DTB read accesses
system.cpu.itb.writeAccesses                        0                       # DTB write accesses
system.cpu.itb.instAccesses                         0                       # ITB inst accesses
system.cpu.itb.hits                                 0                       # Total TLB (inst and data) hits
system.cpu.itb.misses                               0                       # Total TLB (inst and data) misses
system.cpu.itb.accesses                             0                       # Total TLB (inst and data) accesses
system.cpu.itb.stage2_mmu.stage2_tlb.instHits            0                       # ITB inst hits
system.cpu.itb.stage2_mmu.stage2_tlb.instMisses            0                       # ITB inst misses
system.cpu.itb.stage2_mmu.stage2_tlb.readHits            0                       # DTB read hits
system.cpu.itb.stage2_mmu.stage2_tlb.readMisses            0                       # DTB read misses
system.cpu.itb.stage2_mmu.stage2_tlb.writeHits            0                       # DTB write hits
system.cpu.itb.stage2_mmu.stage2_tlb.writeMisses            0                       # DTB write misses
system.cpu.itb.stage2_mmu.stage2_tlb.inserts            0                       # Number of times an entry is inserted into the TLB
system.cpu.itb.stage2_mmu.stage2_tlb.flushTlb            0                       # Number of times complete TLB was flushed
system.cpu.itb.stage2_mmu.stage2_tlb.flushTlbMva            0                       # Number of times TLB was flushed by MVA
system.cpu.itb.stage2_mmu.stage2_tlb.flushTlbMvaAsid            0                       # Number of times TLB was flushed by MVA & ASID
system.cpu.itb.stage2_mmu.stage2_tlb.flushTlbAsid            0                       # Number of times TLB was flushed by ASID
system.cpu.itb.stage2_mmu.stage2_tlb.flushedEntries            0                       # Number of entries that have been flushed from TLB
system.cpu.itb.stage2_mmu.stage2_tlb.alignFaults            0                       # Number of TLB faults due to alignment restrictions
system.cpu.itb.stage2_mmu.stage2_tlb.prefetchFaults            0                       # Number of TLB faults due to prefetch
system.cpu.itb.stage2_mmu.stage2_tlb.domainFaults            0                       # Number of TLB faults due to domain restrictions
system.cpu.itb.stage2_mmu.stage2_tlb.permsFaults            0                       # Number of TLB faults due to permissions restrictions
system.cpu.itb.stage2_mmu.stage2_tlb.readAccesses            0                       # DTB read accesses
system.cpu.itb.stage2_mmu.stage2_tlb.writeAccesses            0                       # DTB write accesses
system.cpu.itb.stage2_mmu.stage2_tlb.instAccesses            0                       # ITB inst accesses
system.cpu.itb.stage2_mmu.stage2_tlb.hits            0                       # Total TLB (inst and data) hits
system.cpu.itb.stage2_mmu.stage2_tlb.misses            0                       # Total TLB (inst and data) misses
system.cpu.itb.stage2_mmu.stage2_tlb.accesses            0                       # Total TLB (inst and data) accesses
system.cpu.itb.stage2_mmu.stage2_tlb.walker.walks            0                       # Table walker walks requested
system.cpu.itb.stage2_mmu.stage2_tlb.walker.requestOrigin_Requested::Data            0                       # Table walker requests started/completed, data/inst
system.cpu.itb.stage2_mmu.stage2_tlb.walker.requestOrigin_Requested::Inst            0                       # Table walker requests started/completed, data/inst
system.cpu.itb.stage2_mmu.stage2_tlb.walker.requestOrigin_Requested::total            0                       # Table walker requests started/completed, data/inst
system.cpu.itb.stage2_mmu.stage2_tlb.walker.requestOrigin_Completed::Data            0                       # Table walker requests started/completed, data/inst
system.cpu.itb.stage2_mmu.stage2_tlb.walker.requestOrigin_Completed::Inst            0                       # Table walker requests started/completed, data/inst
system.cpu.itb.stage2_mmu.stage2_tlb.walker.requestOrigin_Completed::total            0                       # Table walker requests started/completed, data/inst
system.cpu.itb.stage2_mmu.stage2_tlb.walker.requestOrigin::total            0                       # Table walker requests started/completed, data/inst
system.cpu.itb.stage2_mmu.stage2_tlb.walker.power_state.pwrStateResidencyTicks::UNDEFINED 118548333000                       # Cumulative time (in ticks) in various power states
system.cpu.itb.walker.walks                         0                       # Table walker walks requested
system.cpu.itb.walker.requestOrigin_Requested::Data            0                       # Table walker requests started/completed, data/inst
system.cpu.itb.walker.requestOrigin_Requested::Inst            0                       # Table walker requests started/completed, data/inst
system.cpu.itb.walker.requestOrigin_Requested::total            0                       # Table walker requests started/completed, data/inst
system.cpu.itb.walker.requestOrigin_Completed::Data            0                       # Table walker requests started/completed, data/inst
system.cpu.itb.walker.requestOrigin_Completed::Inst            0                       # Table walker requests started/completed, data/inst
system.cpu.itb.walker.requestOrigin_Completed::total            0                       # Table walker requests started/completed, data/inst
system.cpu.itb.walker.requestOrigin::total            0                       # Table walker requests started/completed, data/inst
system.cpu.itb.walker.power_state.pwrStateResidencyTicks::UNDEFINED 118548333000                       # Cumulative time (in ticks) in various power states
system.cpu.power_state.pwrStateResidencyTicks::ON 118548333000                       # Cumulative time (in ticks) in various power states
system.cpu.thread_0.numInsts                100000000                       # Number of Instructions committed
system.cpu.thread_0.numOps                  101122355                       # Number of Ops committed
system.cpu.thread_0.numMemRefs                      0                       # Number of Memory References
system.cpu_clk_domain.clock                      1000                       # Clock period in ticks
system.cpu_voltage_domain.voltage                   1                       # Voltage in Volts
system.l2.demand_hits::.cpu.inst                 5145                       # number of demand (read+write) hits
system.l2.demand_hits::.cpu.data                33313                       # number of demand (read+write) hits
system.l2.demand_hits::total                    38458                       # number of demand (read+write) hits
system.l2.overall_hits::.cpu.inst                5145                       # number of overall hits
system.l2.overall_hits::.cpu.data               33313                       # number of overall hits
system.l2.overall_hits::total                   38458                       # number of overall hits
system.l2.demand_misses::.cpu.inst                511                       # number of demand (read+write) misses
system.l2.demand_misses::.cpu.data               1190                       # number of demand (read+write) misses
system.l2.demand_misses::total                   1701                       # number of demand (read+write) misses
system.l2.overall_misses::.cpu.inst               511                       # number of overall misses
system.l2.overall_misses::.cpu.data              1190                       # number of overall misses
system.l2.overall_misses::total                  1701                       # number of overall misses
system.l2.demand_miss_latency::.cpu.inst     59365000                       # number of demand (read+write) miss cycles
system.l2.demand_miss_latency::.cpu.data    141980000                       # number of demand (read+write) miss cycles
system.l2.demand_miss_latency::total        201345000                       # number of demand (read+write) miss cycles
system.l2.overall_miss_latency::.cpu.inst     59365000                       # number of overall miss cycles
system.l2.overall_miss_latency::.cpu.data    141980000                       # number of overall miss cycles
system.l2.overall_miss_latency::total       201345000                       # number of overall miss cycles
system.l2.demand_accesses::.cpu.inst             5656                       # number of demand (read+write) accesses
system.l2.demand_accesses::.cpu.data            34503                       # number of demand (read+write) accesses
system.l2.demand_accesses::total                40159                       # number of demand (read+write) accesses
system.l2.overall_accesses::.cpu.inst            5656                       # number of overall (read+write) accesses
system.l2.overall_accesses::.cpu.data           34503                       # number of overall (read+write) accesses
system.l2.overall_accesses::total               40159                       # number of overall (read+write) accesses
system.l2.demand_miss_rate::.cpu.inst        0.090347                       # miss rate for demand accesses
system.l2.demand_miss_rate::.cpu.data        0.034490                       # miss rate for demand accesses
system.l2.demand_miss_rate::total            0.042357                       # miss rate for demand accesses
system.l2.overall_miss_rate::.cpu.inst       0.090347                       # miss rate for overall accesses
system.l2.overall_miss_rate::.cpu.data       0.034490                       # miss rate for overall accesses
system.l2.overall_miss_rate::total           0.042357                       # miss rate for overall accesses
system.l2.demand_avg_miss_latency::.cpu.inst 116174.168297                       # average overall miss latency
system.l2.demand_avg_miss_latency::.cpu.data 119310.924370                       # average overall miss latency
system.l2.demand_avg_miss_latency::total 118368.606702                       # average overall miss latency
system.l2.overall_avg_miss_latency::.cpu.inst 116174.168297                       # average overall miss latency
system.l2.overall_avg_miss_latency::.cpu.data 119310.924370                       # average overall miss latency
system.l2.overall_avg_miss_latency::total 118368.606702                       # average overall miss latency
system.l2.blocked_cycles::no_mshrs                  0                       # number of cycles access was blocked
system.l2.blocked_cycles::no_targets                0                       # number of cycles access was blocked
system.l2.blocked::no_mshrs                         0                       # number of cycles access was blocked
system.l2.blocked::no_targets                       0                       # number of cycles access was blocked
system.l2.avg_blocked_cycles::no_mshrs            nan                       # average number of cycles each access was blocked
system.l2.avg_blocked_cycles::no_targets          nan                       # average number of cycles each access was blocked
system.l2.demand_mshr_hits::.cpu.inst               1                       # number of demand (read+write) MSHR hits
system.l2.demand_mshr_hits::.cpu.data              12                       # number of demand (read+write) MSHR hits
system.l2.demand_mshr_hits::total                  13                       # number of demand (read+write) MSHR hits
system.l2.overall_mshr_hits::.cpu.inst              1                       # number of overall MSHR hits
system.l2.overall_mshr_hits::.cpu.data             12                       # number of overall MSHR hits
system.l2.overall_mshr_hits::total                 13                       # number of overall MSHR hits
system.l2.demand_mshr_misses::.cpu.inst           510                       # number of demand (read+write) MSHR misses
system.l2.demand_mshr_misses::.cpu.data          1178                       # number of demand (read+write) MSHR misses
system.l2.demand_mshr_misses::total              1688                       # number of demand (read+write) MSHR misses
system.l2.overall_mshr_misses::.cpu.inst          510                       # number of overall MSHR misses
system.l2.overall_mshr_misses::.cpu.data         1178                       # number of overall MSHR misses
system.l2.overall_mshr_misses::total             1688                       # number of overall MSHR misses
system.l2.demand_mshr_miss_latency::.cpu.inst     49140000                       # number of demand (read+write) MSHR miss cycles
system.l2.demand_mshr_miss_latency::.cpu.data    117227000                       # number of demand (read+write) MSHR miss cycles
system.l2.demand_mshr_miss_latency::total    166367000                       # number of demand (read+write) MSHR miss cycles
system.l2.overall_mshr_miss_latency::.cpu.inst     49140000                       # number of overall MSHR miss cycles
system.l2.overall_mshr_miss_latency::.cpu.data    117227000                       # number of overall MSHR miss cycles
system.l2.overall_mshr_miss_latency::total    166367000                       # number of overall MSHR miss cycles
system.l2.demand_mshr_miss_rate::.cpu.inst     0.090170                       # mshr miss rate for demand accesses
system.l2.demand_mshr_miss_rate::.cpu.data     0.034142                       # mshr miss rate for demand accesses
system.l2.demand_mshr_miss_rate::total       0.042033                       # mshr miss rate for demand accesses
system.l2.overall_mshr_miss_rate::.cpu.inst     0.090170                       # mshr miss rate for overall accesses
system.l2.overall_mshr_miss_rate::.cpu.data     0.034142                       # mshr miss rate for overall accesses
system.l2.overall_mshr_miss_rate::total      0.042033                       # mshr miss rate for overall accesses
system.l2.demand_avg_mshr_miss_latency::.cpu.inst 96352.941176                       # average overall mshr miss latency
system.l2.demand_avg_mshr_miss_latency::.cpu.data 99513.582343                       # average overall mshr miss latency
system.l2.demand_avg_mshr_miss_latency::total 98558.649289                       # average overall mshr miss latency
system.l2.overall_avg_mshr_miss_latency::.cpu.inst 96352.941176                       # average overall mshr miss latency
system.l2.overall_avg_mshr_miss_latency::.cpu.data 99513.582343                       # average overall mshr miss latency
system.l2.overall_avg_mshr_miss_latency::total 98558.649289                       # average overall mshr miss latency
system.l2.replacements                              0                       # number of replacements
system.l2.WritebackDirty_hits::.writebacks        32886                       # number of WritebackDirty hits
system.l2.WritebackDirty_hits::total            32886                       # number of WritebackDirty hits
system.l2.WritebackDirty_accesses::.writebacks        32886                       # number of WritebackDirty accesses(hits+misses)
system.l2.WritebackDirty_accesses::total        32886                       # number of WritebackDirty accesses(hits+misses)
system.l2.WritebackClean_hits::.writebacks         4347                       # number of WritebackClean hits
system.l2.WritebackClean_hits::total             4347                       # number of WritebackClean hits
system.l2.WritebackClean_accesses::.writebacks         4347                       # number of WritebackClean accesses(hits+misses)
system.l2.WritebackClean_accesses::total         4347                       # number of WritebackClean accesses(hits+misses)
system.l2.ReadExReq_hits::.cpu.data             16064                       # number of ReadExReq hits
system.l2.ReadExReq_hits::total                 16064                       # number of ReadExReq hits
system.l2.ReadExReq_misses::.cpu.data             940                       # number of ReadExReq misses
system.l2.ReadExReq_misses::total                 940                       # number of ReadExReq misses
system.l2.ReadExReq_miss_latency::.cpu.data    111324000                       # number of ReadExReq miss cycles
system.l2.ReadExReq_miss_latency::total     111324000                       # number of ReadExReq miss cycles
system.l2.ReadExReq_accesses::.cpu.data         17004                       # number of ReadExReq accesses(hits+misses)
system.l2.ReadExReq_accesses::total             17004                       # number of ReadExReq accesses(hits+misses)
system.l2.ReadExReq_miss_rate::.cpu.data     0.055281                       # miss rate for ReadExReq accesses
system.l2.ReadExReq_miss_rate::total         0.055281                       # miss rate for ReadExReq accesses
system.l2.ReadExReq_avg_miss_latency::.cpu.data 118429.787234                       # average ReadExReq miss latency
system.l2.ReadExReq_avg_miss_latency::total 118429.787234                       # average ReadExReq miss latency
system.l2.ReadExReq_mshr_misses::.cpu.data          940                       # number of ReadExReq MSHR misses
system.l2.ReadExReq_mshr_misses::total            940                       # number of ReadExReq MSHR misses
system.l2.ReadExReq_mshr_miss_latency::.cpu.data     92524000                       # number of ReadExReq MSHR miss cycles
system.l2.ReadExReq_mshr_miss_latency::total     92524000                       # number of ReadExReq MSHR miss cycles
system.l2.ReadExReq_mshr_miss_rate::.cpu.data     0.055281                       # mshr miss rate for ReadExReq accesses
system.l2.ReadExReq_mshr_miss_rate::total     0.055281                       # mshr miss rate for ReadExReq accesses
system.l2.ReadExReq_avg_mshr_miss_latency::.cpu.data 98429.787234                       # average ReadExReq mshr miss latency
system.l2.ReadExReq_avg_mshr_miss_latency::total 98429.787234                       # average ReadExReq mshr miss latency
system.l2.ReadCleanReq_hits::.cpu.inst           5145                       # number of ReadCleanReq hits
system.l2.ReadCleanReq_hits::total               5145                       # number of ReadCleanReq hits
system.l2.ReadCleanReq_misses::.cpu.inst          511                       # number of ReadCleanReq misses
system.l2.ReadCleanReq_misses::total              511                       # number of ReadCleanReq misses
system.l2.ReadCleanReq_miss_latency::.cpu.inst     59365000                       # number of ReadCleanReq miss cycles
system.l2.ReadCleanReq_miss_latency::total     59365000                       # number of ReadCleanReq miss cycles
system.l2.ReadCleanReq_accesses::.cpu.inst         5656                       # number of ReadCleanReq accesses(hits+misses)
system.l2.ReadCleanReq_accesses::total           5656                       # number of ReadCleanReq accesses(hits+misses)
system.l2.ReadCleanReq_miss_rate::.cpu.inst     0.090347                       # miss rate for ReadCleanReq accesses
system.l2.ReadCleanReq_miss_rate::total      0.090347                       # miss rate for ReadCleanReq accesses
system.l2.ReadCleanReq_avg_miss_latency::.cpu.inst 116174.168297                       # average ReadCleanReq miss latency
system.l2.ReadCleanReq_avg_miss_latency::total 116174.168297                       # average ReadCleanReq miss latency
system.l2.ReadCleanReq_mshr_hits::.cpu.inst            1                       # number of ReadCleanReq MSHR hits
system.l2.ReadCleanReq_mshr_hits::total             1                       # number of ReadCleanReq MSHR hits
system.l2.ReadCleanReq_mshr_misses::.cpu.inst          510                       # number of ReadCleanReq MSHR misses
system.l2.ReadCleanReq_mshr_misses::total          510                       # number of ReadCleanReq MSHR misses
system.l2.ReadCleanReq_mshr_miss_latency::.cpu.inst     49140000                       # number of ReadCleanReq MSHR miss cycles
system.l2.ReadCleanReq_mshr_miss_latency::total     49140000                       # number of ReadCleanReq MSHR miss cycles
system.l2.ReadCleanReq_mshr_miss_rate::.cpu.inst     0.090170                       # mshr miss rate for ReadCleanReq accesses
system.l2.ReadCleanReq_mshr_miss_rate::total     0.090170                       # mshr miss rate for ReadCleanReq accesses
system.l2.ReadCleanReq_avg_mshr_miss_latency::.cpu.inst 96352.941176                       # average ReadCleanReq mshr miss latency
system.l2.ReadCleanReq_avg_mshr_miss_latency::total 96352.941176                       # average ReadCleanReq mshr miss latency
system.l2.ReadSharedReq_hits::.cpu.data         17249                       # number of ReadSharedReq hits
system.l2.ReadSharedReq_hits::total             17249                       # number of ReadSharedReq hits
system.l2.ReadSharedReq_misses::.cpu.data          250                       # number of ReadSharedReq misses
system.l2.ReadSharedReq_misses::total             250                       # number of ReadSharedReq misses
system.l2.ReadSharedReq_miss_latency::.cpu.data     30656000                       # number of ReadSharedReq miss cycles
system.l2.ReadSharedReq_miss_latency::total     30656000                       # number of ReadSharedReq miss cycles
system.l2.ReadSharedReq_accesses::.cpu.data        17499                       # number of ReadSharedReq accesses(hits+misses)
system.l2.ReadSharedReq_accesses::total         17499                       # number of ReadSharedReq accesses(hits+misses)
system.l2.ReadSharedReq_miss_rate::.cpu.data     0.014287                       # miss rate for ReadSharedReq accesses
system.l2.ReadSharedReq_miss_rate::total     0.014287                       # miss rate for ReadSharedReq accesses
system.l2.ReadSharedReq_avg_miss_latency::.cpu.data       122624                       # average ReadSharedReq miss latency
system.l2.ReadSharedReq_avg_miss_latency::total       122624                       # average ReadSharedReq miss latency
system.l2.ReadSharedReq_mshr_hits::.cpu.data           12                       # number of ReadSharedReq MSHR hits
system.l2.ReadSharedReq_mshr_hits::total           12                       # number of ReadSharedReq MSHR hits
system.l2.ReadSharedReq_mshr_misses::.cpu.data          238                       # number of ReadSharedReq MSHR misses
system.l2.ReadSharedReq_mshr_misses::total          238                       # number of ReadSharedReq MSHR misses
system.l2.ReadSharedReq_mshr_miss_latency::.cpu.data     24703000                       # number of ReadSharedReq MSHR miss cycles
system.l2.ReadSharedReq_mshr_miss_latency::total     24703000                       # number of ReadSharedReq MSHR miss cycles
system.l2.ReadSharedReq_mshr_miss_rate::.cpu.data     0.013601                       # mshr miss rate for ReadSharedReq accesses
system.l2.ReadSharedReq_mshr_miss_rate::total     0.013601                       # mshr miss rate for ReadSharedReq accesses
system.l2.ReadSharedReq_avg_mshr_miss_latency::.cpu.data 103794.117647                       # average ReadSharedReq mshr miss latency
system.l2.ReadSharedReq_avg_mshr_miss_latency::total 103794.117647                       # average ReadSharedReq mshr miss latency
system.l2.power_state.pwrStateResidencyTicks::UNDEFINED 118548333000                       # Cumulative time (in ticks) in various power states
system.l2.tags.tagsinuse                  1637.532208                       # Cycle average of tags in use
system.l2.tags.total_refs                       78091                       # Total number of references to valid blocks.
system.l2.tags.sampled_refs                      1688                       # Sample count of references to valid blocks.
system.l2.tags.avg_refs                     46.262441                       # Average number of references to valid blocks.
system.l2.tags.warmup_cycle                    102000                       # Cycle when the warmup percentage was hit.
system.l2.tags.occ_blocks::.cpu.inst       508.601589                       # Average occupied blocks per requestor
system.l2.tags.occ_blocks::.cpu.data      1128.930618                       # Average occupied blocks per requestor
system.l2.tags.occ_percent::.cpu.inst        0.062085                       # Average percentage of cache occupancy
system.l2.tags.occ_percent::.cpu.data        0.137809                       # Average percentage of cache occupancy
system.l2.tags.occ_percent::total            0.199894                       # Average percentage of cache occupancy
system.l2.tags.occ_task_id_blocks::1024          1688                       # Occupied blocks per task id
system.l2.tags.age_task_id_blocks_1024::4         1688                       # Occupied blocks per task id
system.l2.tags.occ_task_id_percent::1024     0.206055                       # Percentage of cache occupancy per task id
system.l2.tags.tag_accesses                    626520                       # Number of tag accesses
system.l2.tags.data_accesses                   626520                       # Number of data accesses
system.l2.tags.power_state.pwrStateResidencyTicks::UNDEFINED 118548333000                       # Cumulative time (in ticks) in various power states
system.mem_ctrls.avgPriority_.cpu.inst::samples      2040.00                       # Average QoS priority value for accepted requests
system.mem_ctrls.avgPriority_.cpu.data::samples      4712.00                       # Average QoS priority value for accepted requests
system.mem_ctrls.priorityMinLatency      0.000000018750                       # per QoS priority minimum request to response latency (s)
system.mem_ctrls.priorityMaxLatency      0.000000666750                       # per QoS priority maximum request to response latency (s)
system.mem_ctrls.numReadWriteTurnArounds            0                       # Number of turnarounds from READ to WRITE
system.mem_ctrls.numWriteReadTurnArounds            0                       # Number of turnarounds from WRITE to READ
system.mem_ctrls.numStayReadState               38840                       # Number of times bus staying in READ state
system.mem_ctrls.numStayWriteState                  0                       # Number of times bus staying in WRITE state
system.mem_ctrls.readReqs                        1688                       # Number of read requests accepted
system.mem_ctrls.writeReqs                          0                       # Number of write requests accepted
system.mem_ctrls.readBursts                      6752                       # Number of controller read bursts, including those serviced by the write queue
system.mem_ctrls.writeBursts                        0                       # Number of controller write bursts, including those merged in the write queue
system.mem_ctrls.servicedByWrQ                      0                       # Number of controller read bursts serviced by the write queue
system.mem_ctrls.mergedWrBursts                     0                       # Number of controller write bursts merged with an existing one
system.mem_ctrls.neitherReadNorWriteReqs            0                       # Number of requests that are neither read nor write
system.mem_ctrls.avgRdQLen                       4.01                       # Average read queue length when enqueuing
system.mem_ctrls.avgWrQLen                       0.00                       # Average write queue length when enqueuing
system.mem_ctrls.numRdRetry                         0                       # Number of times read queue was full causing retry
system.mem_ctrls.numWrRetry                         0                       # Number of times write queue was full causing retry
system.mem_ctrls.readPktSize::0                     0                       # Read request sizes (log2)
system.mem_ctrls.readPktSize::1                     0                       # Read request sizes (log2)
system.mem_ctrls.readPktSize::2                     0                       # Read request sizes (log2)
system.mem_ctrls.readPktSize::3                     0                       # Read request sizes (log2)
system.mem_ctrls.readPktSize::4                     0                       # Read request sizes (log2)
system.mem_ctrls.readPktSize::5                     0                       # Read request sizes (log2)
system.mem_ctrls.readPktSize::6                  6752                       # Read request sizes (log2)
system.mem_ctrls.readPktSize::7                     0                       # Read request sizes (log2)
system.mem_ctrls.readPktSize::8                     0                       # Read request sizes (log2)
system.mem_ctrls.writePktSize::0                    0                       # Write request sizes (log2)
system.mem_ctrls.writePktSize::1                    0                       # Write request sizes (log2)
system.mem_ctrls.writePktSize::2                    0                       # Write request sizes (log2)
system.mem_ctrls.writePktSize::3                    0                       # Write request sizes (log2)
system.mem_ctrls.writePktSize::4                    0                       # Write request sizes (log2)
system.mem_ctrls.writePktSize::5                    0                       # Write request sizes (log2)
system.mem_ctrls.writePktSize::6                    0                       # Write request sizes (log2)
system.mem_ctrls.writePktSize::7                    0                       # Write request sizes (log2)
system.mem_ctrls.writePktSize::8                    0                       # Write request sizes (log2)
system.mem_ctrls.rdQLenPdf::0                    1590                       # What read queue length does an incoming req see
system.mem_ctrls.rdQLenPdf::1                    1592                       # What read queue length does an incoming req see
system.mem_ctrls.rdQLenPdf::2                    1594                       # What read queue length does an incoming req see
system.mem_ctrls.rdQLenPdf::3                    1594                       # What read queue length does an incoming req see
system.mem_ctrls.rdQLenPdf::4                      95                       # What read queue length does an incoming req see
system.mem_ctrls.rdQLenPdf::5                      94                       # What read queue length does an incoming req see
system.mem_ctrls.rdQLenPdf::6                      92                       # What read queue length does an incoming req see
system.mem_ctrls.rdQLenPdf::7                      92                       # What read queue length does an incoming req see
system.mem_ctrls.rdQLenPdf::8                       3                       # What read queue length does an incoming req see
system.mem_ctrls.rdQLenPdf::9                       2                       # What read queue length does an incoming req see
system.mem_ctrls.rdQLenPdf::10                      2                       # What read queue length does an incoming req see
[...]
system.mem_ctrls.dram.bytes_inst_read::total       130560                       # Number of instructions bytes read from this memory
system.mem_ctrls.dram.num_reads::.cpu.inst          510                       # Number of read requests responded to by this memory
system.mem_ctrls.dram.num_reads::.cpu.data         1178                       # Number of read requests responded to by this memory
system.mem_ctrls.dram.num_reads::total           1688                       # Number of read requests responded to by this memory
system.mem_ctrls.dram.bw_read::.cpu.inst      1101323                       # Total read bandwidth from this memory (bytes/s)
system.mem_ctrls.dram.bw_read::.cpu.data      2543840                       # Total read bandwidth from this memory (bytes/s)
system.mem_ctrls.dram.bw_read::total          3645163                       # Total read bandwidth from this memory (bytes/s)
system.mem_ctrls.dram.bw_inst_read::.cpu.inst      1101323                       # Instruction read bandwidth from this memory (bytes/s)
system.mem_ctrls.dram.bw_inst_read::total      1101323                       # Instruction read bandwidth from this memory (bytes/s)
system.mem_ctrls.dram.bw_total::.cpu.inst      1101323                       # Total bandwidth to/from this memory (bytes/s)
system.mem_ctrls.dram.bw_total::.cpu.data      2543840                       # Total bandwidth to/from this memory (bytes/s)
system.mem_ctrls.dram.bw_total::total         3645163                       # Total bandwidth to/from this memory (bytes/s)
system.mem_ctrls.dram.readBursts                 6752                       # Number of DRAM read bursts
system.mem_ctrls.dram.writeBursts                   0                       # Number of DRAM write bursts
system.mem_ctrls.dram.perBankRdBursts::0          396                       # Per bank write bursts
system.mem_ctrls.dram.perBankRdBursts::1          376                       # Per bank write bursts
system.mem_ctrls.dram.perBankRdBursts::2          388                       # Per bank write bursts
system.mem_ctrls.dram.perBankRdBursts::3          388                       # Per bank write bursts
system.mem_ctrls.dram.perBankRdBursts::4          348                       # Per bank write bursts
system.mem_ctrls.dram.perBankRdBursts::5          640                       # Per bank write bursts
system.mem_ctrls.dram.perBankRdBursts::6          404                       # Per bank write bursts
system.mem_ctrls.dram.perBankRdBursts::7          484                       # Per bank write bursts
system.mem_ctrls.dram.perBankRdBursts::8          368                       # Per bank write bursts
system.mem_ctrls.dram.perBankRdBursts::9          480                       # Per bank write bursts
system.mem_ctrls.dram.perBankRdBursts::10          484                       # Per bank write bursts
system.mem_ctrls.dram.perBankRdBursts::11          436                       # Per bank write bursts
system.mem_ctrls.dram.perBankRdBursts::12          480                       # Per bank write bursts
system.mem_ctrls.dram.perBankRdBursts::13          424                       # Per bank write bursts
system.mem_ctrls.dram.perBankRdBursts::14          356                       # Per bank write bursts
system.mem_ctrls.dram.perBankRdBursts::15          300                       # Per bank write bursts
system.mem_ctrls.dram.perBankWrBursts::0            0                       # Per bank write bursts
system.mem_ctrls.dram.perBankWrBursts::1            0                       # Per bank write bursts
system.mem_ctrls.dram.perBankWrBursts::2            0                       # Per bank write bursts
system.mem_ctrls.dram.perBankWrBursts::3            0                       # Per bank write bursts
system.mem_ctrls.dram.perBankWrBursts::4            0                       # Per bank write bursts
system.mem_ctrls.dram.perBankWrBursts::5            0                       # Per bank write bursts
system.mem_ctrls.dram.perBankWrBursts::6            0                       # Per bank write bursts
system.mem_ctrls.dram.perBankWrBursts::7            0                       # Per bank write bursts
system.mem_ctrls.dram.perBankWrBursts::8            0                       # Per bank write bursts
system.mem_ctrls.dram.perBankWrBursts::9            0                       # Per bank write bursts
system.mem_ctrls.dram.perBankWrBursts::10            0                       # Per bank write bursts
system.mem_ctrls.dram.perBankWrBursts::11            0                       # Per bank write bursts
system.mem_ctrls.dram.perBankWrBursts::12            0                       # Per bank write bursts
system.mem_ctrls.dram.perBankWrBursts::13            0                       # Per bank write bursts
system.mem_ctrls.dram.perBankWrBursts::14            0                       # Per bank write bursts
system.mem_ctrls.dram.perBankWrBursts::15            0                       # Per bank write bursts
system.mem_ctrls.dram.totQLat               141235000                       # Total ticks spent queuing
system.mem_ctrls.dram.totBusLat              33760000                       # Total ticks spent in databus transfers
system.mem_ctrls.dram.totMemAccLat          267835000                       # Total ticks spent from burst creation until serviced by the DRAM
system.mem_ctrls.dram.avgQLat                20917.51                       # Average queueing delay per DRAM burst
system.mem_ctrls.dram.avgBusLat               5000.00                       # Average bus latency per DRAM burst
system.mem_ctrls.dram.avgMemAccLat           39667.51                       # Average memory access latency per DRAM burst
system.mem_ctrls.dram.readRowHits                5885                       # Number of row buffer hits during reads
system.mem_ctrls.dram.writeRowHits                  0                       # Number of row buffer hits during writes
system.mem_ctrls.dram.readRowHitRate            87.16                       # Row buffer hit rate for reads
system.mem_ctrls.dram.writeRowHitRate             nan                       # Row buffer hit rate for writes
system.mem_ctrls.dram.bytesPerActivate::samples          867                       # Bytes accessed per row activation
system.mem_ctrls.dram.bytesPerActivate::mean   498.417532                       # Bytes accessed per row activation
system.mem_ctrls.dram.bytesPerActivate::gmean   417.586403                       # Bytes accessed per row activation
system.mem_ctrls.dram.bytesPerActivate::stdev   308.738185                       # Bytes accessed per row activation
system.mem_ctrls.dram.bytesPerActivate::256-383          477     55.02%     55.02% # Bytes accessed per row activation
system.mem_ctrls.dram.bytesPerActivate::512-639          136     15.69%     70.70% # Bytes accessed per row activation
system.mem_ctrls.dram.bytesPerActivate::768-895           77      8.88%     79.58% # Bytes accessed per row activation
system.mem_ctrls.dram.bytesPerActivate::1024-1151          177     20.42%    100.00% # Bytes accessed per row activation
system.mem_ctrls.dram.bytesPerActivate::total          867                       # Bytes accessed per row activation
system.mem_ctrls.dram.bytesRead                432128                       # Total number of bytes read from DRAM
system.mem_ctrls.dram.bytesWritten                  0                       # Total number of bytes written to DRAM
system.mem_ctrls.dram.avgRdBW                3.645163                       # Average DRAM read bandwidth in MiBytes/s
system.mem_ctrls.dram.avgWrBW                       0                       # Average DRAM write bandwidth in MiBytes/s
system.mem_ctrls.dram.peakBW                 12800.00                       # Theoretical peak bandwidth in MiByte/s
system.mem_ctrls.dram.busUtil                    0.03                       # Data bus utilization in percentage
system.mem_ctrls.dram.busUtilRead                0.03                       # Data bus utilization in percentage for reads
system.mem_ctrls.dram.busUtilWrite               0.00                       # Data bus utilization in percentage for writes
system.mem_ctrls.dram.pageHitRate               87.16                       # Row buffer hit rate, read and write combined
system.mem_ctrls.dram.power_state.pwrStateResidencyTicks::UNDEFINED 118548333000                       # Cumulative time (in ticks) in various power states
system.mem_ctrls.dram.rank0.actEnergy         3127320                       # Energy for activate commands per rank (pJ)
system.mem_ctrls.dram.rank0.preEnergy         1662210                       # Energy for precharge commands per rank (pJ)
system.mem_ctrls.dram.rank0.readEnergy       24447360                       # Energy for read commands per rank (pJ)
system.mem_ctrls.dram.rank0.writeEnergy             0                       # Energy for write commands per rank (pJ)
system.mem_ctrls.dram.rank0.refreshEnergy 9357894000.000002                       # Energy for refresh commands per rank (pJ)
system.mem_ctrls.dram.rank0.actBackEnergy   2140023960                       # Energy for active background per rank (pJ)
system.mem_ctrls.dram.rank0.preBackEnergy  43720434720                       # Energy for precharge background per rank (pJ)
system.mem_ctrls.dram.rank0.actPowerDownEnergy            0                       # Energy for active power-down per rank (pJ)
system.mem_ctrls.dram.rank0.prePowerDownEnergy            0                       # Energy for precharge power-down per rank (pJ)
system.mem_ctrls.dram.rank0.selfRefreshEnergy            0                       # Energy for self refresh per rank (pJ)
system.mem_ctrls.dram.rank0.totalEnergy   55247589570                       # Total energy per rank (pJ)
system.mem_ctrls.dram.rank0.averagePower   466.034302                       # Core power per rank (mW)
system.mem_ctrls.dram.rank0.totalIdleTime            0                       # Total Idle time Per DRAM Rank
system.mem_ctrls.dram.rank0.pwrStateTime::IDLE 113642418750                       # Time in different power states
system.mem_ctrls.dram.rank0.pwrStateTime::REF   3958500000                       # Time in different power states
system.mem_ctrls.dram.rank0.pwrStateTime::SREF            0                       # Time in different power states
system.mem_ctrls.dram.rank0.pwrStateTime::PRE_PDN            0                       # Time in different power states
system.mem_ctrls.dram.rank0.pwrStateTime::ACT    947414250                       # Time in different power states
system.mem_ctrls.dram.rank0.pwrStateTime::ACT_PDN            0                       # Time in different power states
system.mem_ctrls.dram.rank1.actEnergy         3063060                       # Energy for activate commands per rank (pJ)
system.mem_ctrls.dram.rank1.preEnergy         1628055                       # Energy for precharge commands per rank (pJ)
system.mem_ctrls.dram.rank1.readEnergy       23761920                       # Energy for read commands per rank (pJ)
system.mem_ctrls.dram.rank1.writeEnergy             0                       # Energy for write commands per rank (pJ)
system.mem_ctrls.dram.rank1.refreshEnergy 9357894000.000002                       # Energy for refresh commands per rank (pJ)
system.mem_ctrls.dram.rank1.actBackEnergy   2167422150                       # Energy for active background per rank (pJ)
system.mem_ctrls.dram.rank1.preBackEnergy  43697362560                       # Energy for precharge background per rank (pJ)
system.mem_ctrls.dram.rank1.actPowerDownEnergy            0                       # Energy for active power-down per rank (pJ)
system.mem_ctrls.dram.rank1.prePowerDownEnergy            0                       # Energy for precharge power-down per rank (pJ)
system.mem_ctrls.dram.rank1.selfRefreshEnergy            0                       # Energy for self refresh per rank (pJ)
system.mem_ctrls.dram.rank1.totalEnergy   55251131745                       # Total energy per rank (pJ)
system.mem_ctrls.dram.rank1.averagePower   466.064181                       # Core power per rank (mW)
system.mem_ctrls.dram.rank1.totalIdleTime            0                       # Total Idle time Per DRAM Rank
system.mem_ctrls.dram.rank1.pwrStateTime::IDLE 113582190750                       # Time in different power states
system.mem_ctrls.dram.rank1.pwrStateTime::REF   3958500000                       # Time in different power states
system.mem_ctrls.dram.rank1.pwrStateTime::SREF            0                       # Time in different power states
system.mem_ctrls.dram.rank1.pwrStateTime::PRE_PDN            0                       # Time in different power states
system.mem_ctrls.dram.rank1.pwrStateTime::ACT   1007642250                       # Time in different power states
system.mem_ctrls.dram.rank1.pwrStateTime::ACT_PDN            0                       # Time in different power states
system.mem_ctrls.power_state.pwrStateResidencyTicks::UNDEFINED 118548333000                       # Cumulative time (in ticks) in various power states
system.membus.trans_dist::ReadResp                748                       # Transaction distribution
system.membus.trans_dist::ReadExReq               940                       # Transaction distribution
system.membus.trans_dist::ReadExResp              940                       # Transaction distribution
system.membus.trans_dist::ReadSharedReq           748                       # Transaction distribution
system.membus.pkt_count_system.l2.mem_side_port::system.mem_ctrls.port         3376                       # Packet count per connected requestor and responder (bytes)
system.membus.pkt_count::total                   3376                       # Packet count per connected requestor and responder (bytes)
system.membus.pkt_size_system.l2.mem_side_port::system.mem_ctrls.port       432128                       # Cumulative packet size per connected requestor and responder (bytes)
system.membus.pkt_size::total                  432128                       # Cumulative packet size per connected requestor and responder (bytes)
system.membus.snoops                                0                       # Total snoops (count)
system.membus.snoopTraffic                          0                       # Total snoop traffic (bytes)
system.membus.snoop_fanout::samples              1688                       # Request fanout histogram
system.membus.snoop_fanout::mean                    0                       # Request fanout histogram
system.membus.snoop_fanout::stdev                   0                       # Request fanout histogram
system.membus.snoop_fanout::underflows              0      0.00%      0.00% # Request fanout histogram
system.membus.snoop_fanout::0                    1688    100.00%    100.00% # Request fanout histogram
system.membus.snoop_fanout::1                       0      0.00%    100.00% # Request fanout histogram
system.membus.snoop_fanout::overflows               0      0.00%    100.00% # Request fanout histogram
system.membus.snoop_fanout::min_value               0                       # Request fanout histogram
system.membus.snoop_fanout::max_value               0                       # Request fanout histogram
system.membus.snoop_fanout::total                1688                       # Request fanout histogram
system.membus.power_state.pwrStateResidencyTicks::UNDEFINED 118548333000                       # Cumulative time (in ticks) in various power states
system.membus.reqLayer0.occupancy             1688000                       # Layer occupancy (ticks)
system.membus.reqLayer0.utilization               0.0                       # Layer utilization (%)
system.membus.respLayer1.occupancy           29356250                       # Layer occupancy (ticks)
system.membus.respLayer1.utilization              0.0                       # Layer utilization (%)
system.tol2bus.trans_dist::ReadResp             23155                       # Transaction distribution
system.tol2bus.trans_dist::WritebackDirty        32886                       # Transaction distribution
system.tol2bus.trans_dist::WritebackClean         5528                       # Transaction distribution
system.tol2bus.trans_dist::CleanEvict            1361                       # Transaction distribution
system.tol2bus.trans_dist::ReadExReq            17004                       # Transaction distribution
system.tol2bus.trans_dist::ReadExResp           17004                       # Transaction distribution
system.tol2bus.trans_dist::ReadCleanReq          5656                       # Transaction distribution
system.tol2bus.trans_dist::ReadSharedReq        17499                       # Transaction distribution
system.tol2bus.pkt_count_system.cpu.icache.mem_side_port::system.l2.cpu_side_port        16840                       # Packet count per connected requestor and responder (bytes)
system.tol2bus.pkt_count_system.cpu.dcache.mem_side_port::system.l2.cpu_side_port       103253                       # Packet count per connected requestor and responder (bytes)
system.tol2bus.pkt_count::total                120093                       # Packet count per connected requestor and responder (bytes)
system.tol2bus.pkt_size_system.cpu.icache.mem_side_port::system.l2.cpu_side_port      2863104                       # Cumulative packet size per connected requestor and responder (bytes)
system.tol2bus.pkt_size_system.cpu.dcache.mem_side_port::system.l2.cpu_side_port     17251584                       # Cumulative packet size per connected requestor and responder (bytes)
system.tol2bus.pkt_size::total               20114688                       # Cumulative packet size per connected requestor and responder (bytes)
system.tol2bus.snoops                               0                       # Total snoops (count)
system.tol2bus.snoopTraffic                         0                       # Total snoop traffic (bytes)
system.tol2bus.snoop_fanout::samples            40159                       # Request fanout histogram
system.tol2bus.snoop_fanout::mean            0.045768                       # Request fanout histogram
system.tol2bus.snoop_fanout::stdev           0.208984                       # Request fanout histogram
system.tol2bus.snoop_fanout::underflows             0      0.00%      0.00% # Request fanout histogram
system.tol2bus.snoop_fanout::0                  38321     95.42%     95.42% # Request fanout histogram
system.tol2bus.snoop_fanout::1                   1838      4.58%    100.00% # Request fanout histogram
system.tol2bus.snoop_fanout::2                      0      0.00%    100.00% # Request fanout histogram
system.tol2bus.snoop_fanout::overflows              0      0.00%    100.00% # Request fanout histogram
system.tol2bus.snoop_fanout::min_value              0                       # Request fanout histogram
system.tol2bus.snoop_fanout::max_value              1                       # Request fanout histogram
system.tol2bus.snoop_fanout::total              40159                       # Request fanout histogram
system.tol2bus.power_state.pwrStateResidencyTicks::UNDEFINED 118548333000                       # Cumulative time (in ticks) in various power states
system.tol2bus.reqLayer0.occupancy          387246000                       # Layer occupancy (ticks)
system.tol2bus.reqLayer0.utilization              0.3                       # Layer utilization (%)
system.tol2bus.respLayer0.occupancy          50904999                       # Layer occupancy (ticks)
system.tol2bus.respLayer0.utilization             0.0                       # Layer utilization (%)
system.tol2bus.respLayer1.occupancy         310538988                       # Layer occupancy (ticks)
system.tol2bus.respLayer1.utilization             0.3                       # Layer utilization (%)
system.voltage_domain.voltage                       1                       # Voltage in Volts

---------- End Simulation Statistics   ----------
