
---------- Begin Simulation Statistics ----------
final_tick                               163174817000                       # Number of ticks from beginning of simulation (restored from checkpoints and never reset)
host_inst_rate                                 187915                       # Simulator instruction rate (inst/s)
host_mem_usage                                 717280                       # Number of bytes of host memory used
host_op_rate                                   188290                       # Simulator op (including micro ops) rate (op/s)
host_seconds                                   532.16                       # Real time elapsed on the host
host_tick_rate                              306629521                       # Simulator tick rate (ticks/s)
sim_freq                                 1000000000000                       # Frequency of simulated ticks
sim_insts                                   100000000                       # Number of instructions simulated
sim_ops                                     100199496                       # Number of ops (including micro ops) simulated
sim_seconds                                  0.163175                       # Number of seconds simulated
sim_ticks                                163174817000                       # Number of ticks simulated
system.cpu.committedInsts                   100000000                       # Number of instructions committed
system.cpu.committedOps                     100199496                       # Number of ops (including micro ops) committed
system.cpu.cpi                               1.631748                       # CPI: cycles per instruction
system.cpu.discardedOps                        197531                       # Number of ops (including micro ops) which were discarded before commit
system.cpu.idleCycles                        30288587                       # Total number of cycles that the object has spent stopped
system.cpu.ipc                               0.612840                       # IPC: instructions per cycle
system.cpu.numCycles                        163174817                       # number of cpu cycles simulated
system.cpu.numFetchSuspends                         0                       # Number of times Execute suspended instruction fetching
system.cpu.numWorkItemsCompleted                    0                       # number of work items this cpu completed
system.cpu.numWorkItemsStarted                      0                       # number of work items this cpu started
system.cpu.op_class_0::No_OpClass                   0      0.00%      0.00% # Class of committed instruction
system.cpu.op_class_0::IntAlu                46438739     46.35%     46.35% # Class of committed instruction
system.cpu.op_class_0::IntMult                  20720      0.02%     46.37% # Class of committed instruction
system.cpu.op_class_0::IntDiv                       0      0.00%     46.37% # Class of committed instruction
system.cpu.op_class_0::FloatAdd                     0      0.00%     46.37% # Class of committed instruction
system.cpu.op_class_0::FloatCmp                     0      0.00%     46.37% # Class of committed instruction
system.cpu.op_class_0::FloatCvt                     0      0.00%     46.37% # Class of committed instruction
system.cpu.op_class_0::FloatMult                    0      0.00%     46.37% # Class of committed instruction
system.cpu.op_class_0::FloatMultAcc                 0      0.00%     46.37% # Class of committed instruction
system.cpu.op_class_0::FloatDiv                     0      0.00%     46.37% # Class of committed instruction
system.cpu.op_class_0::FloatMisc                    0      0.00%     46.37% # Class of committed instruction
system.cpu.op_class_0::FloatSqrt                    0      0.00%     46.37% # Class of committed instruction
system.cpu.op_class_0::SimdAdd                      0      0.00%     46.37% # Class of committed instruction
system.cpu.op_class_0::SimdAddAcc                   0      0.00%     46.37% # Class of committed instruction
system.cpu.op_class_0::SimdAlu                      0      0.00%     46.37% # Class of committed instruction
system.cpu.op_class_0::SimdCmp                      0      0.00%     46.37% # Class of committed instruction
system.cpu.op_class_0::SimdCvt                      0      0.00%     46.37% # Class of committed instruction
system.cpu.op_class_0::SimdMisc                     0      0.00%     46.37% # Class of committed instruction
system.cpu.op_class_0::SimdMult                     0      0.00%     46.37% # Class of committed instruction
system.cpu.op_class_0::SimdMultAcc                  0      0.00%     46.37% # Class of committed instruction
system.cpu.op_class_0::SimdShift                    0      0.00%     46.37% # Class of committed instruction
system.cpu.op_class_0::SimdShiftAcc                 0      0.00%     46.37% # Class of committed instruction
system.cpu.op_class_0::SimdDiv                      0      0.00%     46.37% # Class of committed instruction
system.cpu.op_class_0::SimdSqrt                     0      0.00%     46.37% # Class of committed instruction
system.cpu.op_class_0::SimdFloatAdd                 0      0.00%     46.37% # Class of committed instruction
system.cpu.op_class_0::SimdFloatAlu                 0      0.00%     46.37% # Class of committed instruction
system.cpu.op_class_0::SimdFloatCmp                 0      0.00%     46.37% # Class of committed instruction
system.cpu.op_class_0::SimdFloatCvt                 0      0.00%     46.37% # Class of committed instruction
system.cpu.op_class_0::SimdFloatDiv                 0      0.00%     46.37% # Class of committed instruction
system.cpu.op_class_0::SimdFloatMisc                1      0.00%     46.37% # Class of committed instruction
system.cpu.op_class_0::SimdFloatMult                0      0.00%     46.37% # Class of committed instruction
system.cpu.op_class_0::SimdFloatMultAcc             0      0.00%     46.37% # Class of committed instruction
system.cpu.op_class_0::SimdFloatSqrt                0      0.00%     46.37% # Class of committed instruction
system.cpu.op_class_0::SimdReduceAdd                0      0.00%     46.37% # Class of committed instruction
system.cpu.op_class_0::SimdReduceAlu                0      0.00%     46.37% # Class of committed instruction
system.cpu.op_class_0::SimdReduceCmp                0      0.00%     46.37% # Class of committed instruction
system.cpu.op_class_0::SimdFloatReduceAdd            0      0.00%     46.37% # Class of committed instruction
system.cpu.op_class_0::SimdFloatReduceCmp            0      0.00%     46.37% # Class of committed instruction
system.cpu.op_class_0::SimdAes                      0      0.00%     46.37% # Class of committed instruction
system.cpu.op_class_0::SimdAesMix                   0      0.00%     46.37% # Class of committed instruction
system.cpu.op_class_0::SimdSha1Hash                 0      0.00%     46.37% # Class of committed instruction
system.cpu.op_class_0::SimdSha1Hash2                0      0.00%     46.37% # Class of committed instruction
system.cpu.op_class_0::SimdSha256Hash               0      0.00%     46.37% # Class of committed instruction
system.cpu.op_class_0::SimdSha256Hash2              0      0.00%     46.37% # Class of committed instruction
system.cpu.op_class_0::SimdShaSigma2                0      0.00%     46.37% # Class of committed instruction
system.cpu.op_class_0::SimdShaSigma3                0      0.00%     46.37% # Class of committed instruction
system.cpu.op_class_0::SimdPredAlu                  0      0.00%     46.37% # Class of committed instruction
system.cpu.op_class_0::MemRead               42753845     42.67%     89.04% # Class of committed instruction
system.cpu.op_class_0::MemWrite              10986191     10.96%    100.00% # Class of committed instruction
system.cpu.op_class_0::FloatMemRead                 0      0.00%    100.00% # Class of committed instruction
system.cpu.op_class_0::FloatMemWrite                0      0.00%    100.00% # Class of committed instruction
system.cpu.op_class_0::IprAccess                    0      0.00%    100.00% # Class of committed instruction
system.cpu.op_class_0::InstPrefetch                 0      0.00%    100.00% # Class of committed instruction
system.cpu.op_class_0::total                100199496                       # Class of committed instruction
system.cpu.tickCycles                       132886230                       # Number of cycles that the object actually ticked
system.cpu.workload.numSyscalls                    85                       # Number of system calls
system.membus.snoop_filter.hit_multi_requests            0                       # Number of requests hitting in the snoop filter with multiple (>1) holders of the requested data.
system.membus.snoop_filter.hit_multi_snoops            0                       # Number of snoops hitting in the snoop filter with multiple (>1) holders of the requested data.
system.membus.snoop_filter.hit_single_requests       224917                       # Number of requests hitting in the snoop filter with a single holder of the requested data.
system.membus.snoop_filter.hit_single_snoops            0                       # Number of snoops hitting in the snoop filter with a single holder of the requested data.
system.membus.snoop_filter.tot_requests        466637                       # Total number of requests made to the snoop filter.
system.membus.snoop_filter.tot_snoops               0                       # Total number of snoops made to the snoop filter.
system.tol2bus.snoop_filter.hit_multi_requests          198                       # Number of requests hitting in the snoop filter with multiple (>1) holders of the requested data.
system.tol2bus.snoop_filter.hit_multi_snoops           10                       # Number of snoops hitting in the snoop filter with multiple (>1) holders of the requested data.
system.tol2bus.snoop_filter.hit_single_requests       683944                       # Number of requests hitting in the snoop filter with a single holder of the requested data.
system.tol2bus.snoop_filter.hit_single_snoops         6438                       # Number of snoops hitting in the snoop filter with a single holder of the requested data.
system.tol2bus.snoop_filter.tot_requests      1369351                       # Total number of requests made to the snoop filter.
system.tol2bus.snoop_filter.tot_snoops           6448                       # Total number of snoops made to the snoop filter.
system.clk_domain.clock                          1000                       # Clock period in ticks
system.cpu.branchPred.lookups                 4397359                       # Number of BP lookups
system.cpu.branchPred.condPredicted           3642726                       # Number of conditional branches predicted
system.cpu.branchPred.condIncorrect             83177                       # Number of conditional branches incorrect
system.cpu.branchPred.BTBLookups              2112890                       # Number of BTB lookups
system.cpu.branchPred.BTBHits                 2110694                       # Number of BTB hits
system.cpu.branchPred.BTBHitPct             99.896067                       # BTB Hit Percentage
system.cpu.branchPred.RASUsed                   66041                       # Number of times the RAS was used to get a target.
system.cpu.branchPred.RASIncorrect                 15                       # Number of incorrect RAS predictions.
system.cpu.branchPred.indirectLookups             682                       # Number of indirect predictor lookups.
system.cpu.branchPred.indirectHits                295                       # Number of indirect target hits.
system.cpu.branchPred.indirectMisses              387                       # Number of indirect misses.
system.cpu.branchPred.indirectMispredicted          165                       # Number of mispredicted indirect branches.
system.cpu.dcache.demand_hits::.cpu.data     51423074                       # number of demand (read+write) hits
system.cpu.dcache.demand_hits::total         51423074                       # number of demand (read+write) hits
system.cpu.dcache.overall_hits::.cpu.data     51423578                       # number of overall hits
system.cpu.dcache.overall_hits::total        51423578                       # number of overall hits
system.cpu.dcache.demand_misses::.cpu.data       729068                       # number of demand (read+write) misses
system.cpu.dcache.demand_misses::total         729068                       # number of demand (read+write) misses
system.cpu.dcache.overall_misses::.cpu.data       736983                       # number of overall misses
system.cpu.dcache.overall_misses::total        736983                       # number of overall misses
system.cpu.dcache.demand_miss_latency::.cpu.data  38970440000                       # number of demand (read+write) miss cycles
system.cpu.dcache.demand_miss_latency::total  38970440000                       # number of demand (read+write) miss cycles
system.cpu.dcache.overall_miss_latency::.cpu.data  38970440000                       # number of overall miss cycles
system.cpu.dcache.overall_miss_latency::total  38970440000                       # number of overall miss cycles
system.cpu.dcache.demand_accesses::.cpu.data     52152142                       # number of demand (read+write) accesses
system.cpu.dcache.demand_accesses::total     52152142                       # number of demand (read+write) accesses
system.cpu.dcache.overall_accesses::.cpu.data     52160561                       # number of overall (read+write) accesses
system.cpu.dcache.overall_accesses::total     52160561                       # number of overall (read+write) accesses
system.cpu.dcache.demand_miss_rate::.cpu.data     0.013980                       # miss rate for demand accesses
system.cpu.dcache.demand_miss_rate::total     0.013980                       # miss rate for demand accesses
system.cpu.dcache.overall_miss_rate::.cpu.data     0.014129                       # miss rate for overall accesses
system.cpu.dcache.overall_miss_rate::total     0.014129                       # miss rate for overall accesses
system.cpu.dcache.demand_avg_miss_latency::.cpu.data 53452.407732                       # average overall miss latency
system.cpu.dcache.demand_avg_miss_latency::total 53452.407732                       # average overall miss latency
system.cpu.dcache.overall_avg_miss_latency::.cpu.data 52878.343191                       # average overall miss latency
system.cpu.dcache.overall_avg_miss_latency::total 52878.343191                       # average overall miss latency
system.cpu.dcache.blocked_cycles::no_mshrs       106359                       # number of cycles access was blocked
system.cpu.dcache.blocked_cycles::no_targets            0                       # number of cycles access was blocked
system.cpu.dcache.blocked::no_mshrs              3239                       # number of cycles access was blocked
system.cpu.dcache.blocked::no_targets               0                       # number of cycles access was blocked
system.cpu.dcache.avg_blocked_cycles::no_mshrs    32.836987                       # average number of cycles each access was blocked
system.cpu.dcache.avg_blocked_cycles::no_targets          nan                       # average number of cycles each access was blocked
system.cpu.dcache.writebacks::.writebacks       595634                       # number of writebacks
system.cpu.dcache.writebacks::total            595634                       # number of writebacks
system.cpu.dcache.demand_mshr_hits::.cpu.data        52345                       # number of demand (read+write) MSHR hits
system.cpu.dcache.demand_mshr_hits::total        52345                       # number of demand (read+write) MSHR hits
system.cpu.dcache.overall_mshr_hits::.cpu.data        52345                       # number of overall MSHR hits
system.cpu.dcache.overall_mshr_hits::total        52345                       # number of overall MSHR hits
system.cpu.dcache.demand_mshr_misses::.cpu.data       676723                       # number of demand (read+write) MSHR misses
system.cpu.dcache.demand_mshr_misses::total       676723                       # number of demand (read+write) MSHR misses
system.cpu.dcache.overall_mshr_misses::.cpu.data       684632                       # number of overall MSHR misses
system.cpu.dcache.overall_mshr_misses::total       684632                       # number of overall MSHR misses
system.cpu.dcache.demand_mshr_miss_latency::.cpu.data  35986250000                       # number of demand (read+write) MSHR miss cycles
system.cpu.dcache.demand_mshr_miss_latency::total  35986250000                       # number of demand (read+write) MSHR miss cycles
system.cpu.dcache.overall_mshr_miss_latency::.cpu.data  36813530999                       # number of overall MSHR miss cycles
system.cpu.dcache.overall_mshr_miss_latency::total  36813530999                       # number of overall MSHR miss cycles
system.cpu.dcache.demand_mshr_miss_rate::.cpu.data     0.012976                       # mshr miss rate for demand accesses
system.cpu.dcache.demand_mshr_miss_rate::total     0.012976                       # mshr miss rate for demand accesses
system.cpu.dcache.overall_mshr_miss_rate::.cpu.data     0.013125                       # mshr miss rate for overall accesses
system.cpu.dcache.overall_mshr_miss_rate::total     0.013125                       # mshr miss rate for overall accesses
system.cpu.dcache.demand_avg_mshr_miss_latency::.cpu.data 53177.223177                       # average overall mshr miss latency
system.cpu.dcache.demand_avg_mshr_miss_latency::total 53177.223177                       # average overall mshr miss latency
system.cpu.dcache.overall_avg_mshr_miss_latency::.cpu.data 53771.268359                       # average overall mshr miss latency
system.cpu.dcache.overall_avg_mshr_miss_latency::total 53771.268359                       # average overall mshr miss latency
system.cpu.dcache.replacements                 683611                       # number of replacements
system.cpu.dcache.ReadReq_hits::.cpu.data     40785624                       # number of ReadReq hits
system.cpu.dcache.ReadReq_hits::total        40785624                       # number of ReadReq hits
system.cpu.dcache.ReadReq_misses::.cpu.data       389463                       # number of ReadReq misses
system.cpu.dcache.ReadReq_misses::total        389463                       # number of ReadReq misses
system.cpu.dcache.ReadReq_miss_latency::.cpu.data  16737094000                       # number of ReadReq miss cycles
system.cpu.dcache.ReadReq_miss_latency::total  16737094000                       # number of ReadReq miss cycles
system.cpu.dcache.ReadReq_accesses::.cpu.data     41175087                       # number of ReadReq accesses(hits+misses)
system.cpu.dcache.ReadReq_accesses::total     41175087                       # number of ReadReq accesses(hits+misses)
system.cpu.dcache.ReadReq_miss_rate::.cpu.data     0.009459                       # miss rate for ReadReq accesses
system.cpu.dcache.ReadReq_miss_rate::total     0.009459                       # miss rate for ReadReq accesses
system.cpu.dcache.ReadReq_avg_miss_latency::.cpu.data 42974.798633                       # average ReadReq miss latency
system.cpu.dcache.ReadReq_avg_miss_latency::total 42974.798633                       # average ReadReq miss latency
system.cpu.dcache.ReadReq_mshr_hits::.cpu.data           79                       # number of ReadReq MSHR hits
system.cpu.dcache.ReadReq_mshr_hits::total           79                       # number of ReadReq MSHR hits
system.cpu.dcache.ReadReq_mshr_misses::.cpu.data       389384                       # number of ReadReq MSHR misses
system.cpu.dcache.ReadReq_mshr_misses::total       389384                       # number of ReadReq MSHR misses
system.cpu.dcache.ReadReq_mshr_miss_latency::.cpu.data  15955472000                       # number of ReadReq MSHR miss cycles
system.cpu.dcache.ReadReq_mshr_miss_latency::total  15955472000                       # number of ReadReq MSHR miss cycles
system.cpu.dcache.ReadReq_mshr_miss_rate::.cpu.data     0.009457                       # mshr miss rate for ReadReq accesses
system.cpu.dcache.ReadReq_mshr_miss_rate::total     0.009457                       # mshr miss rate for ReadReq accesses
system.cpu.dcache.ReadReq_avg_mshr_miss_latency::.cpu.data 40976.188030                       # average ReadReq mshr miss latency
system.cpu.dcache.ReadReq_avg_mshr_miss_latency::total 40976.188030                       # average ReadReq mshr miss latency
system.cpu.dcache.WriteReq_hits::.cpu.data     10637450                       # number of WriteReq hits
system.cpu.dcache.WriteReq_hits::total       10637450                       # number of WriteReq hits
system.cpu.dcache.WriteReq_misses::.cpu.data       339605                       # number of WriteReq misses
system.cpu.dcache.WriteReq_misses::total       339605                       # number of WriteReq misses
system.cpu.dcache.WriteReq_miss_latency::.cpu.data  22233346000                       # number of WriteReq miss cycles
system.cpu.dcache.WriteReq_miss_latency::total  22233346000                       # number of WriteReq miss cycles
system.cpu.dcache.WriteReq_accesses::.cpu.data     10977055                       # number of WriteReq accesses(hits+misses)
system.cpu.dcache.WriteReq_accesses::total     10977055                       # number of WriteReq accesses(hits+misses)
system.cpu.dcache.WriteReq_miss_rate::.cpu.data     0.030938                       # miss rate for WriteReq accesses
system.cpu.dcache.WriteReq_miss_rate::total     0.030938                       # miss rate for WriteReq accesses
system.cpu.dcache.WriteReq_avg_miss_latency::.cpu.data 65468.252823                       # average WriteReq miss latency
system.cpu.dcache.WriteReq_avg_miss_latency::total 65468.252823                       # average WriteReq miss latency
system.cpu.dcache.WriteReq_mshr_hits::.cpu.data        52266                       # number of WriteReq MSHR hits
system.cpu.dcache.WriteReq_mshr_hits::total        52266                       # number of WriteReq MSHR hits
system.cpu.dcache.WriteReq_mshr_misses::.cpu.data       287339                       # number of WriteReq MSHR misses
system.cpu.dcache.WriteReq_mshr_misses::total       287339                       # number of WriteReq MSHR misses
system.cpu.dcache.WriteReq_mshr_miss_latency::.cpu.data  20030778000                       # number of WriteReq MSHR miss cycles
system.cpu.dcache.WriteReq_mshr_miss_latency::total  20030778000                       # number of WriteReq MSHR miss cycles
system.cpu.dcache.WriteReq_mshr_miss_rate::.cpu.data     0.026176                       # mshr miss rate for WriteReq accesses
system.cpu.dcache.WriteReq_mshr_miss_rate::total     0.026176                       # mshr miss rate for WriteReq accesses
system.cpu.dcache.WriteReq_avg_mshr_miss_latency::.cpu.data 69711.309638                       # average WriteReq mshr miss latency
system.cpu.dcache.WriteReq_avg_mshr_miss_latency::total 69711.309638                       # average WriteReq mshr miss latency
system.cpu.dcache.SoftPFReq_hits::.cpu.data          504                       # number of SoftPFReq hits
system.cpu.dcache.SoftPFReq_hits::total           504                       # number of SoftPFReq hits
system.cpu.dcache.SoftPFReq_misses::.cpu.data         7915                       # number of SoftPFReq misses
system.cpu.dcache.SoftPFReq_misses::total         7915                       # number of SoftPFReq misses
system.cpu.dcache.SoftPFReq_accesses::.cpu.data         8419                       # number of SoftPFReq accesses(hits+misses)
system.cpu.dcache.SoftPFReq_accesses::total         8419                       # number of SoftPFReq accesses(hits+misses)
system.cpu.dcache.SoftPFReq_miss_rate::.cpu.data     0.940135                       # miss rate for SoftPFReq accesses
system.cpu.dcache.SoftPFReq_miss_rate::total     0.940135                       # miss rate for SoftPFReq accesses
system.cpu.dcache.SoftPFReq_mshr_misses::.cpu.data         7909                       # number of SoftPFReq MSHR misses
system.cpu.dcache.SoftPFReq_mshr_misses::total         7909                       # number of SoftPFReq MSHR misses
system.cpu.dcache.SoftPFReq_mshr_miss_latency::.cpu.data    827280999                       # number of SoftPFReq MSHR miss cycles
system.cpu.dcache.SoftPFReq_mshr_miss_latency::total    827280999                       # number of SoftPFReq MSHR miss cycles
system.cpu.dcache.SoftPFReq_mshr_miss_rate::.cpu.data     0.939423                       # mshr miss rate for SoftPFReq accesses
system.cpu.dcache.SoftPFReq_mshr_miss_rate::total     0.939423                       # mshr miss rate for SoftPFReq accesses
system.cpu.dcache.SoftPFReq_avg_mshr_miss_latency::.cpu.data 104599.949298                       # average SoftPFReq mshr miss latency
system.cpu.dcache.SoftPFReq_avg_mshr_miss_latency::total 104599.949298                       # average SoftPFReq mshr miss latency
system.cpu.dcache.LoadLockedReq_hits::.cpu.data           34                       # number of LoadLockedReq hits
system.cpu.dcache.LoadLockedReq_hits::total           34                       # number of LoadLockedReq hits
system.cpu.dcache.LoadLockedReq_misses::.cpu.data            4                       # number of LoadLockedReq misses
system.cpu.dcache.LoadLockedReq_misses::total            4                       # number of LoadLockedReq misses
system.cpu.dcache.LoadLockedReq_miss_latency::.cpu.data       492000                       # number of LoadLockedReq miss cycles
system.cpu.dcache.LoadLockedReq_miss_latency::total       492000                       # number of LoadLockedReq miss cycles
system.cpu.dcache.LoadLockedReq_accesses::.cpu.data           38                       # number of LoadLockedReq accesses(hits+misses)
system.cpu.dcache.LoadLockedReq_accesses::total           38                       # number of LoadLockedReq accesses(hits+misses)
system.cpu.dcache.LoadLockedReq_miss_rate::.cpu.data     0.105263                       # miss rate for LoadLockedReq accesses
system.cpu.dcache.LoadLockedReq_miss_rate::total     0.105263                       # miss rate for LoadLockedReq accesses
system.cpu.dcache.LoadLockedReq_avg_miss_latency::.cpu.data       123000                       # average LoadLockedReq miss latency
system.cpu.dcache.LoadLockedReq_avg_miss_latency::total       123000                       # average LoadLockedReq miss latency
system.cpu.dcache.LoadLockedReq_mshr_misses::.cpu.data            4                       # number of LoadLockedReq MSHR misses
system.cpu.dcache.LoadLockedReq_mshr_misses::total            4                       # number of LoadLockedReq MSHR misses
system.cpu.dcache.LoadLockedReq_mshr_miss_latency::.cpu.data       484000                       # number of LoadLockedReq MSHR miss cycles
system.cpu.dcache.LoadLockedReq_mshr_miss_latency::total       484000                       # number of LoadLockedReq MSHR miss cycles
system.cpu.dcache.LoadLockedReq_mshr_miss_rate::.cpu.data     0.105263                       # mshr miss rate for LoadLockedReq accesses
system.cpu.dcache.LoadLockedReq_mshr_miss_rate::total     0.105263                       # mshr miss rate for LoadLockedReq accesses
system.cpu.dcache.LoadLockedReq_avg_mshr_miss_latency::.cpu.data       121000                       # average LoadLockedReq mshr miss latency
system.cpu.dcache.LoadLockedReq_avg_mshr_miss_latency::total       121000                       # average LoadLockedReq mshr miss latency
system.cpu.dcache.StoreCondReq_hits::.cpu.data           38                       # number of StoreCondReq hits
system.cpu.dcache.StoreCondReq_hits::total           38                       # number of StoreCondReq hits
system.cpu.dcache.StoreCondReq_accesses::.cpu.data           38                       # number of StoreCondReq accesses(hits+misses)
system.cpu.dcache.StoreCondReq_accesses::total           38                       # number of StoreCondReq accesses(hits+misses)
system.cpu.dcache.power_state.pwrStateResidencyTicks::UNDEFINED 163174817000                       # Cumulative time (in ticks) in various power states
system.cpu.dcache.tags.tagsinuse          1012.589692                       # Cycle average of tags in use
system.cpu.dcache.tags.total_refs            52108285                       # Total number of references to valid blocks.
system.cpu.dcache.tags.sampled_refs            684635                       # Sample count of references to valid blocks.
system.cpu.dcache.tags.avg_refs             76.111045                       # Average number of references to valid blocks.
system.cpu.dcache.tags.warmup_cycle            223000                       # Cycle when the warmup percentage was hit.
system.cpu.dcache.tags.occ_blocks::.cpu.data  1012.589692                       # Average occupied blocks per requestor
system.cpu.dcache.tags.occ_percent::.cpu.data     0.988857                       # Average percentage of cache occupancy
system.cpu.dcache.tags.occ_percent::total     0.988857                       # Average percentage of cache occupancy
system.cpu.dcache.tags.occ_task_id_blocks::1024         1024                       # Occupied blocks per task id
system.cpu.dcache.tags.age_task_id_blocks_1024::0          132                       # Occupied blocks per task id
system.cpu.dcache.tags.age_task_id_blocks_1024::1          258                       # Occupied blocks per task id
system.cpu.dcache.tags.age_task_id_blocks_1024::2          617                       # Occupied blocks per task id
system.cpu.dcache.tags.age_task_id_blocks_1024::3           16                       # Occupied blocks per task id
system.cpu.dcache.tags.age_task_id_blocks_1024::4            1                       # Occupied blocks per task id
system.cpu.dcache.tags.occ_task_id_percent::1024            1                       # Percentage of cache occupancy per task id
system.cpu.dcache.tags.tag_accesses         105005909                       # Number of tag accesses
system.cpu.dcache.tags.data_accesses        105005909                       # Number of data accesses
system.cpu.dcache.tags.power_state.pwrStateResidencyTicks::UNDEFINED 163174817000                       # Cumulative time (in ticks) in various power states
system.cpu.dtb.instHits                             0                       # ITB inst hits
system.cpu.dtb.instMisses                           0                       # ITB inst misses
system.cpu.dtb.readHits                             0                       # DTB read hits
system.cpu.dtb.readMisses                           0                       # DTB read misses
system.cpu.dtb.writeHits                            0                       # DTB write hits
system.cpu.dtb.writeMisses                          0                       # DTB write misses
system.cpu.dtb.inserts                              0                       # Number of times an entry is inserted into the TLB
system.cpu.dtb.flushTlb                             0                       # Number of times complete TLB was flushed
system.cpu.dtb.flushTlbMva                          0                       # Number of times TLB was flushed by MVA
system.cpu.dtb.flushTlbMvaAsid                      0                       # Number of times TLB was flushed by MVA & ASID
system.cpu.dtb.flushTlbAsid                         0                       # Number of times TLB was flushed by ASID
system.cpu.dtb.flushedEntries                       0                       # Number of entries that have been flushed from TLB
system.cpu.dtb.alignFaults                          0                       # Number of TLB faults due to alignment restrictions
system.cpu.dtb.prefetchFaults                       0                       # Number of TLB faults due to prefetch
system.cpu.dtb.domainFaults                         0                       # Number of TLB faults due to domain restrictions
system.cpu.dtb.permsFaults                          0                       # Number of TLB faults due to permissions restrictions
system.cpu.dtb.readAccesses                         0                       # DTB read accesses
system.cpu.dtb.writeAccesses                        0                       # DTB write accesses
system.cpu.dtb.instAccesses                         0                       # ITB inst accesses
system.cpu.dtb.hits                                 0                       # Total TLB (inst and data) hits
system.cpu.dtb.misses                               0                       # Total TLB (inst and data) misses
system.cpu.dtb.accesses                             0                       # Total TLB (inst and data) accesses
system.cpu.dtb.stage2_mmu.stage2_tlb.instHits            0                       # ITB inst hits
system.cpu.dtb.stage2_mmu.stage2_tlb.instMisses            0                       # ITB inst misses
system.cpu.dtb.stage2_mmu.stage2_tlb.readHits            0                       # DTB read hits
system.cpu.dtb.stage2_mmu.stage2_tlb.readMisses            0                       # DTB read misses
system.cpu.dtb.stage2_mmu.stage2_tlb.writeHits            0                       # DTB write hits
system.cpu.dtb.stage2_mmu.stage2_tlb.writeMisses            0                       # DTB write misses
system.cpu.dtb.stage2_mmu.stage2_tlb.inserts            0                       # Number of times an entry is inserted into the TLB
system.cpu.dtb.stage2_mmu.stage2_tlb.flushTlb            0                       # Number of times complete TLB was flushed
system.cpu.dtb.stage2_mmu.stage2_tlb.flushTlbMva            0                       # Number of times TLB was flushed by MVA
system.cpu.dtb.stage2_mmu.stage2_tlb.flushTlbMvaAsid            0                       # Number of times TLB was flushed by MVA & ASID
system.cpu.dtb.stage2_mmu.stage2_tlb.flushTlbAsid            0                       # Number of times TLB was flushed by ASID
system.cpu.dtb.stage2_mmu.stage2_tlb.flushedEntries            0                       # Number of entries that have been flushed from TLB
system.cpu.dtb.stage2_mmu.stage2_tlb.alignFaults            0                       # Number of TLB faults due to alignment restrictions
system.cpu.dtb.stage2_mmu.stage2_tlb.prefetchFaults            0                       # Number of TLB faults due to prefetch
system.cpu.dtb.stage2_mmu.stage2_tlb.domainFaults            0                       # Number of TLB faults due to domain restrictions
system.cpu.dtb.stage2_mmu.stage2_tlb.permsFaults            0                       # Number of TLB faults due to permissions restrictions
system.cpu.dtb.stage2_mmu.stage2_tlb.readAccesses            0                       # DTB read accesses
system.cpu.dtb.stage2_mmu.stage2_tlb.writeAccesses            0                       # DTB write accesses
system.cpu.dtb.stage2_mmu.stage2_tlb.instAccesses            0                       # ITB inst accesses
system.cpu.dtb.stage2_mmu.stage2_tlb.hits            0                       # Total TLB (inst and data) hits
system.cpu.dtb.stage2_mmu.stage2_tlb.misses            0                       # Total TLB (inst and data) misses
system.cpu.dtb.stage2_mmu.stage2_tlb.accesses            0                       # Total TLB (inst and data) accesses
system.cpu.dtb.stage2_mmu.stage2_tlb.walker.walks            0                       # Table walker walks requested
system.cpu.dtb.stage2_mmu.stage2_tlb.walker.requestOrigin_Requested::Data            0                       # Table walker requests started/completed, data/inst
system.cpu.dtb.stage2_mmu.stage2_tlb.walker.requestOrigin_Requested::Inst            0                       # Table walker requests started/completed, data/inst
system.cpu.dtb.stage2_mmu.stage2_tlb.walker.requestOrigin_Requested::total            0                       # Table walker requests started/completed, data/inst
system.cpu.dtb.stage2_mmu.stage2_tlb.walker.requestOrigin_Completed::Data            0                       # Table walker requests started/completed, data/inst
system.cpu.dtb.stage2_mmu.stage2_tlb.walker.requestOrigin_Completed::Inst            0                       # Table walker requests started/completed, data/inst
system.cpu.dtb.stage2_mmu.stage2_tlb.walker.requestOrigin_Completed::total            0                       # Table walker requests started/completed, data/inst
system.cpu.dtb.stage2_mmu.stage2_tlb.walker.requestOrigin::total            0                       # Table walker requests started/completed, data/inst
system.cpu.dtb.stage2_mmu.stage2_tlb.walker.power_state.pwrStateResidencyTicks::UNDEFINED 163174817000                       # Cumulative time (in ticks) in various power states
system.cpu.dtb.walker.walks                         0                       # Table walker walks requested
system.cpu.dtb.walker.requestOrigin_Requested::Data            0                       # Table walker requests started/completed, data/inst
system.cpu.dtb.walker.requestOrigin_Requested::Inst            0                       # Table walker requests started/completed, data/inst
system.cpu.dtb.walker.requestOrigin_Requested::total            0                       # Table walker requests started/completed, data/inst
system.cpu.dtb.walker.requestOrigin_Completed::Data            0                       # Table walker requests started/completed, data/inst
system.cpu.dtb.walker.requestOrigin_Completed::Inst            0                       # Table walker requests started/completed, data/inst
system.cpu.dtb.walker.requestOrigin_Completed::total            0                       # Table walker requests started/completed, data/inst
system.cpu.dtb.walker.requestOrigin::total            0                       # Table walker requests started/completed, data/inst
system.cpu.dtb.walker.power_state.pwrStateResidencyTicks::UNDEFINED 163174817000                       # Cumulative time (in ticks) in various power states
system.cpu.fetch2.intInstructions            42703661                       # Number of integer instructions successfully decoded
system.cpu.fetch2.fpInstructions                    0                       # Number of floating point instructions successfully decoded
system.cpu.fetch2.vecInstructions                   0                       # Number of SIMD instructions successfully decoded
system.cpu.fetch2.loadInstructions           43555102                       # Number of memory load instructions successfully decoded
system.cpu.fetch2.storeInstructions          11057162                       # Number of memory store instructions successfully decoded
system.cpu.fetch2.amoInstructions                   0                       # Number of memory atomic instructions successfully decoded
system.cpu.icache.demand_hits::.cpu.inst     10235504                       # number of demand (read+write) hits
system.cpu.icache.demand_hits::total         10235504                       # number of demand (read+write) hits
system.cpu.icache.overall_hits::.cpu.inst     10235504                       # number of overall hits
system.cpu.icache.overall_hits::total        10235504                       # number of overall hits
system.cpu.icache.demand_misses::.cpu.inst          773                       # number of demand (read+write) misses
system.cpu.icache.demand_misses::total            773                       # number of demand (read+write) misses
system.cpu.icache.overall_misses::.cpu.inst          773                       # number of overall misses
system.cpu.icache.overall_misses::total           773                       # number of overall misses
system.cpu.icache.demand_miss_latency::.cpu.inst     73384000                       # number of demand (read+write) miss cycles
system.cpu.icache.demand_miss_latency::total     73384000                       # number of demand (read+write) miss cycles
system.cpu.icache.overall_miss_latency::.cpu.inst     73384000                       # number of overall miss cycles
system.cpu.icache.overall_miss_latency::total     73384000                       # number of overall miss cycles
system.cpu.icache.demand_accesses::.cpu.inst     10236277                       # number of demand (read+write) accesses
system.cpu.icache.demand_accesses::total     10236277                       # number of demand (read+write) accesses
system.cpu.icache.overall_accesses::.cpu.inst     10236277                       # number of overall (read+write) accesses
system.cpu.icache.overall_accesses::total     10236277                       # number of overall (read+write) accesses
system.cpu.icache.demand_miss_rate::.cpu.inst     0.000076                       # miss rate for demand accesses
system.cpu.icache.demand_miss_rate::total     0.000076                       # miss rate for demand accesses
system.cpu.icache.overall_miss_rate::.cpu.inst     0.000076                       # miss rate for overall accesses
system.cpu.icache.overall_miss_rate::total     0.000076                       # miss rate for overall accesses
system.cpu.icache.demand_avg_miss_latency::.cpu.inst 94934.023286                       # average overall miss latency
system.cpu.icache.demand_avg_miss_latency::total 94934.023286                       # average overall miss latency
system.cpu.icache.overall_avg_miss_latency::.cpu.inst 94934.023286                       # average overall miss latency
system.cpu.icache.overall_avg_miss_latency::total 94934.023286                       # average overall miss latency
system.cpu.icache.blocked_cycles::no_mshrs            0                       # number of cycles access was blocked
system.cpu.icache.blocked_cycles::no_targets            0                       # number of cycles access was blocked
system.cpu.icache.blocked::no_mshrs                 0                       # number of cycles access was blocked
system.cpu.icache.blocked::no_targets               0                       # number of cycles access was blocked
system.cpu.icache.avg_blocked_cycles::no_mshrs          nan                       # average number of cycles each access was blocked
system.cpu.icache.avg_blocked_cycles::no_targets          nan                       # average number of cycles each access was blocked
system.cpu.icache.writebacks::.writebacks          331                       # number of writebacks
system.cpu.icache.writebacks::total               331                       # number of writebacks
system.cpu.icache.demand_mshr_misses::.cpu.inst          773                       # number of demand (read+write) MSHR misses
system.cpu.icache.demand_mshr_misses::total          773                       # number of demand (read+write) MSHR misses
system.cpu.icache.overall_mshr_misses::.cpu.inst          773                       # number of overall MSHR misses
system.cpu.icache.overall_mshr_misses::total          773                       # number of overall MSHR misses
system.cpu.icache.demand_mshr_miss_latency::.cpu.inst     71838000                       # number of demand (read+write) MSHR miss cycles
system.cpu.icache.demand_mshr_miss_latency::total     71838000                       # number of demand (read+write) MSHR miss cycles
system.cpu.icache.overall_mshr_miss_latency::.cpu.inst     71838000                       # number of overall MSHR miss cycles
system.cpu.icache.overall_mshr_miss_latency::total     71838000                       # number of overall MSHR miss cycles
system.cpu.icache.demand_mshr_miss_rate::.cpu.inst     0.000076                       # mshr miss rate for demand accesses
system.cpu.icache.demand_mshr_miss_rate::total     0.000076                       # mshr miss rate for demand accesses
system.cpu.icache.overall_mshr_miss_rate::.cpu.inst     0.000076                       # mshr miss rate for overall accesses
system.cpu.icache.overall_mshr_miss_rate::total     0.000076                       # mshr miss rate for overall accesses
system.cpu.icache.demand_avg_mshr_miss_latency::.cpu.inst 92934.023286                       # average overall mshr miss latency
system.cpu.icache.demand_avg_mshr_miss_latency::total 92934.023286                       # average overall mshr miss latency
system.cpu.icache.overall_avg_mshr_miss_latency::.cpu.inst 92934.023286                       # average overall mshr miss latency
system.cpu.icache.overall_avg_mshr_miss_latency::total 92934.023286                       # average overall mshr miss latency
system.cpu.icache.replacements                    331                       # number of replacements
system.cpu.icache.ReadReq_hits::.cpu.inst     10235504                       # number of ReadReq hits
system.cpu.icache.ReadReq_hits::total        10235504                       # number of ReadReq hits
system.cpu.icache.ReadReq_misses::.cpu.inst          773                       # number of ReadReq misses
system.cpu.icache.ReadReq_misses::total           773                       # number of ReadReq misses
system.cpu.icache.ReadReq_miss_latency::.cpu.inst     73384000                       # number of ReadReq miss cycles
system.cpu.icache.ReadReq_miss_latency::total     73384000                       # number of ReadReq miss cycles
system.cpu.icache.ReadReq_accesses::.cpu.inst     10236277                       # number of ReadReq accesses(hits+misses)
system.cpu.icache.ReadReq_accesses::total     10236277                       # number of ReadReq accesses(hits+misses)
system.cpu.icache.ReadReq_miss_rate::.cpu.inst     0.000076                       # miss rate for ReadReq accesses
system.cpu.icache.ReadReq_miss_rate::total     0.000076                       # miss rate for ReadReq accesses
system.cpu.icache.ReadReq_avg_miss_latency::.cpu.inst 94934.023286                       # average ReadReq miss latency
system.cpu.icache.ReadReq_avg_miss_latency::total 94934.023286                       # average ReadReq miss latency
system.cpu.icache.ReadReq_mshr_misses::.cpu.inst          773                       # number of ReadReq MSHR misses
system.cpu.icache.ReadReq_mshr_misses::total          773                       # number of ReadReq MSHR misses
system.cpu.icache.ReadReq_mshr_miss_latency::.cpu.inst     71838000                       # number of ReadReq MSHR miss cycles
system.cpu.icache.ReadReq_mshr_miss_latency::total     71838000                       # number of ReadReq MSHR miss cycles
system.cpu.icache.ReadReq_mshr_miss_rate::.cpu.inst     0.000076                       # mshr miss rate for ReadReq accesses
system.cpu.icache.ReadReq_mshr_miss_rate::total     0.000076                       # mshr miss rate for ReadReq accesses
system.cpu.icache.ReadReq_avg_mshr_miss_latency::.cpu.inst 92934.023286                       # average ReadReq mshr miss latency
system.cpu.icache.ReadReq_avg_mshr_miss_latency::total 92934.023286                       # average ReadReq mshr miss latency
system.cpu.icache.power_state.pwrStateResidencyTicks::UNDEFINED 163174817000                       # Cumulative time (in ticks) in various power states
system.cpu.icache.tags.tagsinuse           364.433911                       # Cycle average of tags in use
system.cpu.icache.tags.total_refs            10236277                       # Total number of references to valid blocks.
system.cpu.icache.tags.sampled_refs               773                       # Sample count of references to valid blocks.
system.cpu.icache.tags.avg_refs          13242.272962                       # Average number of references to valid blocks.
system.cpu.icache.tags.warmup_cycle            108000                       # Cycle when the warmup percentage was hit.
system.cpu.icache.tags.occ_blocks::.cpu.inst   364.433911                       # Average occupied blocks per requestor
system.cpu.icache.tags.occ_percent::.cpu.inst     0.711785                       # Average percentage of cache occupancy
system.cpu.icache.tags.occ_percent::total     0.711785                       # Average percentage of cache occupancy
system.cpu.icache.tags.occ_task_id_blocks::1024          442                       # Occupied blocks per task id
system.cpu.icache.tags.age_task_id_blocks_1024::4          442                       # Occupied blocks per task id
system.cpu.icache.tags.occ_task_id_percent::1024     0.863281                       # Percentage of cache occupancy per task id
system.cpu.icache.tags.tag_accesses          20473327                       # Number of tag accesses
system.cpu.icache.tags.data_accesses         20473327                       # Number of data accesses
system.cpu.icache.tags.power_state.pwrStateResidencyTicks::UNDEFINED 163174817000                       # Cumulative time (in ticks) in various power states
system.cpu.itb.instHits                             0                       # ITB inst hits
system.cpu.itb.instMisses                           0                       # ITB inst misses
system.cpu.itb.readHits                             0                       # DTB read hits
system.cpu.itb.readMisses                           0                       # DTB read misses
system.cpu.itb.writeHits                            0                       # DTB write hits
system.cpu.itb.writeMisses                          0                       # DTB write misses
system.cpu.itb.inserts                              0                       # Number of times an entry is inserted into the TLB
system.cpu.itb.flushTlb                             0                       # Number of times complete TLB was flushed
system.cpu.itb.flushTlbMva                          0                       # Number of times TLB was flushed by MVA
system.cpu.itb.flushTlbMvaAsid                      0                       # Number of times TLB was flushed by MVA & ASID
system.cpu.itb.flushTlbAsid                         0                       # Number of times TLB was flushed by ASID
system.cpu.itb.flushedEntries                       0                       # Number of entries that have been flushed from TLB
system.cpu.itb.alignFaults                          0                       # Number of TLB faults due to alignment restrictions
system.cpu.itb.prefetchFaults                       0                       # Number of TLB faults due to prefetch
system.cpu.itb.domainFaults                         0                       # Number of TLB faults due to domain restrictions
system.cpu.itb.permsFaults                          0                       # Number of TLB faults due to permissions restrictions
system.cpu.itb.readAccesses                         0                       # DTB read accesses
system.cpu.itb.writeAccesses                        0                       # DTB write accesses
system.cpu.itb.instAccesses                         0                       # ITB inst accesses
system.cpu.itb.hits                                 0                       # Total TLB (inst and data) hits
system.cpu.itb.misses                               0                       # Total TLB (inst and data) misses
system.cpu.itb.accesses                             0                       # Total TLB (inst and data) accesses
system.cpu.itb.stage2_mmu.stage2_tlb.instHits            0                       # ITB inst hits
system.cpu.itb.stage2_mmu.stage2_tlb.instMisses            0                       # ITB inst misses
system.cpu.itb.stage2_mmu.stage2_tlb.readHits            0                       # DTB read hits
system.cpu.itb.stage2_mmu.stage2_tlb.readMisses            0                       # DTB read misses
system.cpu.itb.stage2_mmu.stage2_tlb.writeHits            0                       # DTB write hits
system.cpu.itb.stage2_mmu.stage2_tlb.writeMisses            0                       # DTB write misses
system.cpu.itb.stage2_mmu.stage2_tlb.inserts            0                       # Number of times an entry is inserted into the TLB
system.cpu.itb.stage2_mmu.stage2_tlb.flushTlb            0                       # Number of times complete TLB was flushed
system.cpu.itb.stage2_mmu.stage2_tlb.flushTlbMva            0                       # Number of times TLB was flushed by MVA
system.cpu.itb.stage2_mmu.stage2_tlb.flushTlbMvaAsid            0                       # Number of times TLB was flushed by MVA & ASID
system.cpu.itb.stage2_mmu.stage2_tlb.flushTlbAsid            0                       # Number of times TLB was flushed by ASID
system.cpu.itb.stage2_mmu.stage2_tlb.flushedEntries            0                       # Number of entries that have been flushed from TLB
system.cpu.itb.stage2_mmu.stage2_tlb.alignFaults            0                       # Number of TLB faults due to alignment restrictions
system.cpu.itb.stage2_mmu.stage2_tlb.prefetchFaults            0                       # Number of TLB faults due to prefetch
system.cpu.itb.stage2_mmu.stage2_tlb.domainFaults            0                       # Number of TLB faults due to domain restrictions
system.cpu.itb.stage2_mmu.stage2_tlb.permsFaults            0                       # Number of TLB faults due to permissions restrictions
system.cpu.itb.stage2_mmu.stage2_tlb.readAccesses            0                       # DTB read accesses
system.cpu.itb.stage2_mmu.stage2_tlb.writeAccesses            0                       # DTB write accesses
system.cpu.itb.stage2_mmu.stage2_tlb.instAccesses            0                       # ITB inst accesses
system.cpu.itb.stage2_mmu.stage2_tlb.hits            0                       # Total TLB (inst and data) hits
system.cpu.itb.stage2_mmu.stage2_tlb.misses            0                       # Total TLB (inst and data) misses
system.cpu.itb.stage2_mmu.stage2_tlb.accesses            0                       # Total TLB (inst and data) accesses
system.cpu.itb.stage2_mmu.stage2_tlb.walker.walks            0                       # Table walker walks requested
system.cpu.itb.stage2_mmu.stage2_tlb.walker.requestOrigin_Requested::Data            0                       # Table walker requests started/completed, data/inst
system.cpu.itb.stage2_mmu.stage2_tlb.walker.requestOrigin_Requested::Inst            0                       # Table walker requests started/completed, data/inst
system.cpu.itb.stage2_mmu.stage2_tlb.walker.requestOrigin_Requested::total            0                       # Table walker requests started/completed, data/inst
system.cpu.itb.stage2_mmu.stage2_tlb.walker.requestOrigin_Completed::Data            0                       # Table walker requests started/completed, data/inst
system.cpu.itb.stage2_mmu.stage2_tlb.walker.requestOrigin_Completed::Inst            0                       # Table walker requests started/completed, data/inst
system.cpu.itb.stage2_mmu.stage2_tlb.walker.requestOrigin_Completed::total            0                       # Table walker requests started/completed, data/inst
system.cpu.itb.stage2_mmu.stage2_tlb.walker.requestOrigin::total            0                       # Table walker requests started/completed, data/inst
system.cpu.itb.stage2_mmu.stage2_tlb.walker.power_state.pwrStateResidencyTicks::UNDEFINED 163174817000                       # Cumulative time (in ticks) in various power states
system.cpu.itb.walker.walks                         0                       # Table walker walks requested
system.cpu.itb.walker.requestOrigin_Requested::Data            0                       # Table walker requests started/completed, data/inst
system.cpu.itb.walker.requestOrigin_Requested::Inst            0                       # Table walker requests started/completed, data/inst
system.cpu.itb.walker.requestOrigin_Requested::total            0                       # Table walker requests started/completed, data/inst
system.cpu.itb.walker.requestOrigin_Completed::Data            0                       # Table walker requests started/completed, data/inst
system.cpu.itb.walker.requestOrigin_Completed::Inst            0                       # Table walker requests started/completed, data/inst
system.cpu.itb.walker.requestOrigin_Completed::total            0                       # Table walker requests started/completed, data/inst
system.cpu.itb.walker.requestOrigin::total            0                       # Table walker requests started/completed, data/inst
system.cpu.itb.walker.power_state.pwrStateResidencyTicks::UNDEFINED 163174817000                       # Cumulative time (in ticks) in various power states
system.cpu.power_state.pwrStateResidencyTicks::ON 163174817000                       # Cumulative time (in ticks) in various power states
system.cpu.thread_0.numInsts                100000000                       # Number of Instructions committed
system.cpu.thread_0.numOps                  100199496                       # Number of Ops committed
system.cpu.thread_0.numMemRefs                      0                       # Number of Memory References
system.cpu_clk_domain.clock                      1000                       # Clock period in ticks
system.cpu_voltage_domain.voltage                   1                       # Voltage in Volts
system.l2.demand_hits::.cpu.inst                   98                       # number of demand (read+write) hits
system.l2.demand_hits::.cpu.data               443567                       # number of demand (read+write) hits
system.l2.demand_hits::total                   443665                       # number of demand (read+write) hits
system.l2.overall_hits::.cpu.inst                  98                       # number of overall hits
system.l2.overall_hits::.cpu.data              443567                       # number of overall hits
system.l2.overall_hits::total                  443665                       # number of overall hits
system.l2.demand_misses::.cpu.inst                675                       # number of demand (read+write) misses
system.l2.demand_misses::.cpu.data             241069                       # number of demand (read+write) misses
system.l2.demand_misses::total                 241744                       # number of demand (read+write) misses
system.l2.overall_misses::.cpu.inst               675                       # number of overall misses
system.l2.overall_misses::.cpu.data            241069                       # number of overall misses
system.l2.overall_misses::total                241744                       # number of overall misses
system.l2.demand_miss_latency::.cpu.inst     67422000                       # number of demand (read+write) miss cycles
system.l2.demand_miss_latency::.cpu.data  25429388000                       # number of demand (read+write) miss cycles
system.l2.demand_miss_latency::total      25496810000                       # number of demand (read+write) miss cycles
system.l2.overall_miss_latency::.cpu.inst     67422000                       # number of overall miss cycles
system.l2.overall_miss_latency::.cpu.data  25429388000                       # number of overall miss cycles
system.l2.overall_miss_latency::total     25496810000                       # number of overall miss cycles
system.l2.demand_accesses::.cpu.inst              773                       # number of demand (read+write) accesses
system.l2.demand_accesses::.cpu.data           684636                       # number of demand (read+write) accesses
system.l2.demand_accesses::total               685409                       # number of demand (read+write) accesses
system.l2.overall_accesses::.cpu.inst             773                       # number of overall (read+write) accesses
system.l2.overall_accesses::.cpu.data          684636                       # number of overall (read+write) accesses
system.l2.overall_accesses::total              685409                       # number of overall (read+write) accesses
system.l2.demand_miss_rate::.cpu.inst        0.873221                       # miss rate for demand accesses
system.l2.demand_miss_rate::.cpu.data        0.352113                       # miss rate for demand accesses
system.l2.demand_miss_rate::total            0.352700                       # miss rate for demand accesses
system.l2.overall_miss_rate::.cpu.inst       0.873221                       # miss rate for overall accesses
system.l2.overall_miss_rate::.cpu.data       0.352113                       # miss rate for overall accesses
system.l2.overall_miss_rate::total           0.352700                       # miss rate for overall accesses
system.l2.demand_avg_miss_latency::.cpu.inst 99884.444444                       # average overall miss latency
system.l2.demand_avg_miss_latency::.cpu.data 105485.931414                       # average overall miss latency
system.l2.demand_avg_miss_latency::total 105470.290886                       # average overall miss latency
system.l2.overall_avg_miss_latency::.cpu.inst 99884.444444                       # average overall miss latency
system.l2.overall_avg_miss_latency::.cpu.data 105485.931414                       # average overall miss latency
system.l2.overall_avg_miss_latency::total 105470.290886                       # average overall miss latency
system.l2.blocked_cycles::no_mshrs                  0                       # number of cycles access was blocked
system.l2.blocked_cycles::no_targets                0                       # number of cycles access was blocked
system.l2.blocked::no_mshrs                         0                       # number of cycles access was blocked
system.l2.blocked::no_targets                       0                       # number of cycles access was blocked
system.l2.avg_blocked_cycles::no_mshrs            nan                       # average number of cycles each access was blocked
system.l2.avg_blocked_cycles::no_targets          nan                       # average number of cycles each access was blocked
system.l2.writebacks::.writebacks              152528                       # number of writebacks
system.l2.writebacks::total                    152528                       # number of writebacks
system.l2.demand_mshr_hits::.cpu.data               5                       # number of demand (read+write) MSHR hits
system.l2.demand_mshr_hits::total                   5                       # number of demand (read+write) MSHR hits
system.l2.overall_mshr_hits::.cpu.data              5                       # number of overall MSHR hits
system.l2.overall_mshr_hits::total                  5                       # number of overall MSHR hits
system.l2.demand_mshr_misses::.cpu.inst           675                       # number of demand (read+write) MSHR misses
system.l2.demand_mshr_misses::.cpu.data        241064                       # number of demand (read+write) MSHR misses
system.l2.demand_mshr_misses::total            241739                       # number of demand (read+write) MSHR misses
system.l2.overall_mshr_misses::.cpu.inst          675                       # number of overall MSHR misses
system.l2.overall_mshr_misses::.cpu.data       241064                       # number of overall MSHR misses
system.l2.overall_mshr_misses::total           241739                       # number of overall MSHR misses
system.l2.demand_mshr_miss_latency::.cpu.inst     53922000                       # number of demand (read+write) MSHR miss cycles
system.l2.demand_mshr_miss_latency::.cpu.data  20607717000                       # number of demand (read+write) MSHR miss cycles
system.l2.demand_mshr_miss_latency::total  20661639000                       # number of demand (read+write) MSHR miss cycles
system.l2.overall_mshr_miss_latency::.cpu.inst     53922000                       # number of overall MSHR miss cycles
system.l2.overall_mshr_miss_latency::.cpu.data  20607717000                       # number of overall MSHR miss cycles
system.l2.overall_mshr_miss_latency::total  20661639000                       # number of overall MSHR miss cycles
system.l2.demand_mshr_miss_rate::.cpu.inst     0.873221                       # mshr miss rate for demand accesses
system.l2.demand_mshr_miss_rate::.cpu.data     0.352105                       # mshr miss rate for demand accesses
system.l2.demand_mshr_miss_rate::total       0.352693                       # mshr miss rate for demand accesses
system.l2.overall_mshr_miss_rate::.cpu.inst     0.873221                       # mshr miss rate for overall accesses
system.l2.overall_mshr_miss_rate::.cpu.data     0.352105                       # mshr miss rate for overall accesses
system.l2.overall_mshr_miss_rate::total      0.352693                       # mshr miss rate for overall accesses
system.l2.demand_avg_mshr_miss_latency::.cpu.inst 79884.444444                       # average overall mshr miss latency
system.l2.demand_avg_mshr_miss_latency::.cpu.data 85486.497362                       # average overall mshr miss latency
system.l2.demand_avg_mshr_miss_latency::total 85470.854930                       # average overall mshr miss latency
system.l2.overall_avg_mshr_miss_latency::.cpu.inst 79884.444444                       # average overall mshr miss latency
system.l2.overall_avg_mshr_miss_latency::.cpu.data 85486.497362                       # average overall mshr miss latency
system.l2.overall_avg_mshr_miss_latency::total 85470.854930                       # average overall mshr miss latency
system.l2.replacements                         227729                       # number of replacements
system.l2.WritebackDirty_hits::.writebacks       595634                       # number of WritebackDirty hits
system.l2.WritebackDirty_hits::total           595634                       # number of WritebackDirty hits
system.l2.WritebackDirty_accesses::.writebacks       595634                       # number of WritebackDirty accesses(hits+misses)
system.l2.WritebackDirty_accesses::total       595634                       # number of WritebackDirty accesses(hits+misses)
system.l2.WritebackClean_hits::.writebacks          326                       # number of WritebackClean hits
system.l2.WritebackClean_hits::total              326                       # number of WritebackClean hits
system.l2.WritebackClean_accesses::.writebacks          326                       # number of WritebackClean accesses(hits+misses)
system.l2.WritebackClean_accesses::total          326                       # number of WritebackClean accesses(hits+misses)
system.l2.CleanEvict_mshr_misses::.writebacks         3618                       # number of CleanEvict MSHR misses
system.l2.CleanEvict_mshr_misses::total          3618                       # number of CleanEvict MSHR misses
system.l2.CleanEvict_mshr_miss_rate::.writebacks          inf                       # mshr miss rate for CleanEvict accesses
system.l2.CleanEvict_mshr_miss_rate::total          inf                       # mshr miss rate for CleanEvict accesses
system.l2.ReadExReq_hits::.cpu.data            135784                       # number of ReadExReq hits
system.l2.ReadExReq_hits::total                135784                       # number of ReadExReq hits
system.l2.ReadExReq_misses::.cpu.data          151555                       # number of ReadExReq misses
system.l2.ReadExReq_misses::total              151555                       # number of ReadExReq misses
system.l2.ReadExReq_miss_latency::.cpu.data  16307072000                       # number of ReadExReq miss cycles
system.l2.ReadExReq_miss_latency::total   16307072000                       # number of ReadExReq miss cycles
system.l2.ReadExReq_accesses::.cpu.data        287339                       # number of ReadExReq accesses(hits+misses)
system.l2.ReadExReq_accesses::total            287339                       # number of ReadExReq accesses(hits+misses)
system.l2.ReadExReq_miss_rate::.cpu.data     0.527443                       # miss rate for ReadExReq accesses
system.l2.ReadExReq_miss_rate::total         0.527443                       # miss rate for ReadExReq accesses
system.l2.ReadExReq_avg_miss_latency::.cpu.data 107598.376827                       # average ReadExReq miss latency
system.l2.ReadExReq_avg_miss_latency::total 107598.376827                       # average ReadExReq miss latency
system.l2.ReadExReq_mshr_misses::.cpu.data       151555                       # number of ReadExReq MSHR misses
system.l2.ReadExReq_mshr_misses::total         151555                       # number of ReadExReq MSHR misses
system.l2.ReadExReq_mshr_miss_latency::.cpu.data  13275992000                       # number of ReadExReq MSHR miss cycles
system.l2.ReadExReq_mshr_miss_latency::total  13275992000                       # number of ReadExReq MSHR miss cycles
system.l2.ReadExReq_mshr_miss_rate::.cpu.data     0.527443                       # mshr miss rate for ReadExReq accesses
system.l2.ReadExReq_mshr_miss_rate::total     0.527443                       # mshr miss rate for ReadExReq accesses
system.l2.ReadExReq_avg_mshr_miss_latency::.cpu.data 87598.508792                       # average ReadExReq mshr miss latency
system.l2.ReadExReq_avg_mshr_miss_latency::total 87598.508792                       # average ReadExReq mshr miss latency
system.l2.ReadCleanReq_hits::.cpu.inst             98                       # number of ReadCleanReq hits
system.l2.ReadCleanReq_hits::total                 98                       # number of ReadCleanReq hits
system.l2.ReadCleanReq_misses::.cpu.inst          675                       # number of ReadCleanReq misses
system.l2.ReadCleanReq_misses::total              675                       # number of ReadCleanReq misses
system.l2.ReadCleanReq_miss_latency::.cpu.inst     67422000                       # number of ReadCleanReq miss cycles
system.l2.ReadCleanReq_miss_latency::total     67422000                       # number of ReadCleanReq miss cycles
system.l2.ReadCleanReq_accesses::.cpu.inst          773                       # number of ReadCleanReq accesses(hits+misses)
system.l2.ReadCleanReq_accesses::total            773                       # number of ReadCleanReq accesses(hits+misses)
system.l2.ReadCleanReq_miss_rate::.cpu.inst     0.873221                       # miss rate for ReadCleanReq accesses
system.l2.ReadCleanReq_miss_rate::total      0.873221                       # miss rate for ReadCleanReq accesses
system.l2.ReadCleanReq_avg_miss_latency::.cpu.inst 99884.444444                       # average ReadCleanReq miss latency
system.l2.ReadCleanReq_avg_miss_latency::total 99884.444444                       # average ReadCleanReq miss latency
system.l2.ReadCleanReq_mshr_misses::.cpu.inst          675                       # number of ReadCleanReq MSHR misses
system.l2.ReadCleanReq_mshr_misses::total          675                       # number of ReadCleanReq MSHR misses
system.l2.ReadCleanReq_mshr_miss_latency::.cpu.inst     53922000                       # number of ReadCleanReq MSHR miss cycles
system.l2.ReadCleanReq_mshr_miss_latency::total     53922000                       # number of ReadCleanReq MSHR miss cycles
system.l2.ReadCleanReq_mshr_miss_rate::.cpu.inst     0.873221                       # mshr miss rate for ReadCleanReq accesses
system.l2.ReadCleanReq_mshr_miss_rate::total     0.873221                       # mshr miss rate for ReadCleanReq accesses
system.l2.ReadCleanReq_avg_mshr_miss_latency::.cpu.inst 79884.444444                       # average ReadCleanReq mshr miss latency
system.l2.ReadCleanReq_avg_mshr_miss_latency::total 79884.444444                       # average ReadCleanReq mshr miss latency
system.l2.ReadSharedReq_hits::.cpu.data        307783                       # number of ReadSharedReq hits
system.l2.ReadSharedReq_hits::total            307783                       # number of ReadSharedReq hits
system.l2.ReadSharedReq_misses::.cpu.data        89514                       # number of ReadSharedReq misses
system.l2.ReadSharedReq_misses::total           89514                       # number of ReadSharedReq misses
system.l2.ReadSharedReq_miss_latency::.cpu.data   9122316000                       # number of ReadSharedReq miss cycles
system.l2.ReadSharedReq_miss_latency::total   9122316000                       # number of ReadSharedReq miss cycles
system.l2.ReadSharedReq_accesses::.cpu.data       397297                       # number of ReadSharedReq accesses(hits+misses)
system.l2.ReadSharedReq_accesses::total        397297                       # number of ReadSharedReq accesses(hits+misses)
system.l2.ReadSharedReq_miss_rate::.cpu.data     0.225308                       # miss rate for ReadSharedReq accesses
system.l2.ReadSharedReq_miss_rate::total     0.225308                       # miss rate for ReadSharedReq accesses
system.l2.ReadSharedReq_avg_miss_latency::.cpu.data 101909.377304                       # average ReadSharedReq miss latency
system.l2.ReadSharedReq_avg_miss_latency::total 101909.377304                       # average ReadSharedReq miss latency
system.l2.ReadSharedReq_mshr_hits::.cpu.data            5                       # number of ReadSharedReq MSHR hits
system.l2.ReadSharedReq_mshr_hits::total            5                       # number of ReadSharedReq MSHR hits
system.l2.ReadSharedReq_mshr_misses::.cpu.data        89509                       # number of ReadSharedReq MSHR misses
system.l2.ReadSharedReq_mshr_misses::total        89509                       # number of ReadSharedReq MSHR misses
system.l2.ReadSharedReq_mshr_miss_latency::.cpu.data   7331725000                       # number of ReadSharedReq MSHR miss cycles
system.l2.ReadSharedReq_mshr_miss_latency::total   7331725000                       # number of ReadSharedReq MSHR miss cycles
system.l2.ReadSharedReq_mshr_miss_rate::.cpu.data     0.225295                       # mshr miss rate for ReadSharedReq accesses
system.l2.ReadSharedReq_mshr_miss_rate::total     0.225295                       # mshr miss rate for ReadSharedReq accesses
system.l2.ReadSharedReq_avg_mshr_miss_latency::.cpu.data 81910.478276                       # average ReadSharedReq mshr miss latency
system.l2.ReadSharedReq_avg_mshr_miss_latency::total 81910.478276                       # average ReadSharedReq mshr miss latency
system.l2.power_state.pwrStateResidencyTicks::UNDEFINED 163174817000                       # Cumulative time (in ticks) in various power states
system.l2.tags.tagsinuse                 16130.981344                       # Cycle average of tags in use
system.l2.tags.total_refs                     1365529                       # Total number of references to valid blocks.
system.l2.tags.sampled_refs                    244113                       # Sample count of references to valid blocks.
system.l2.tags.avg_refs                      5.593840                       # Average number of references to valid blocks.
system.l2.tags.warmup_cycle                     87000                       # Cycle when the warmup percentage was hit.
system.l2.tags.occ_blocks::.writebacks     107.217470                       # Average occupied blocks per requestor
system.l2.tags.occ_blocks::.cpu.inst        22.663722                       # Average occupied blocks per requestor
system.l2.tags.occ_blocks::.cpu.data     16001.100153                       # Average occupied blocks per requestor
system.l2.tags.occ_percent::.writebacks      0.006544                       # Average percentage of cache occupancy
system.l2.tags.occ_percent::.cpu.inst        0.001383                       # Average percentage of cache occupancy
system.l2.tags.occ_percent::.cpu.data        0.976630                       # Average percentage of cache occupancy
system.l2.tags.occ_percent::total            0.984557                       # Average percentage of cache occupancy
system.l2.tags.occ_task_id_blocks::1024         16384                       # Occupied blocks per task id
system.l2.tags.age_task_id_blocks_1024::0           94                       # Occupied blocks per task id
system.l2.tags.age_task_id_blocks_1024::1          164                       # Occupied blocks per task id
system.l2.tags.age_task_id_blocks_1024::2         1525                       # Occupied blocks per task id
system.l2.tags.age_task_id_blocks_1024::3         8572                       # Occupied blocks per task id
system.l2.tags.age_task_id_blocks_1024::4         6029                       # Occupied blocks per task id
system.l2.tags.occ_task_id_percent::1024            1                       # Percentage of cache occupancy per task id
system.l2.tags.tag_accesses                   2982419                       # Number of tag accesses
system.l2.tags.data_accesses                  2982419                       # Number of data accesses
system.l2.tags.power_state.pwrStateResidencyTicks::UNDEFINED 163174817000                       # Cumulative time (in ticks) in various power states
system.mem_ctrls.avgPriority_.writebacks::samples    152521.00                       # Average QoS priority value for accepted requests
system.mem_ctrls.avgPriority_.cpu.inst::samples       675.00                       # Average QoS priority value for accepted requests
system.mem_ctrls.avgPriority_.cpu.data::samples    240674.00                       # Average QoS priority value for accepted requests
system.mem_ctrls.priorityMinLatency      0.000000018750                       # per QoS priority minimum request to response latency (s)
system.mem_ctrls.priorityMaxLatency      0.007345490750                       # per QoS priority maximum request to response latency (s)
system.mem_ctrls.numReadWriteTurnArounds         8988                       # Number of turnarounds from READ to WRITE
system.mem_ctrls.numWriteReadTurnArounds         8988                       # Number of turnarounds from WRITE to READ
system.mem_ctrls.numStayReadState              666481                       # Number of times bus staying in READ state
system.mem_ctrls.numStayWriteState             143738                       # Number of times bus staying in WRITE state
system.mem_ctrls.readReqs                      241738                       # Number of read requests accepted
system.mem_ctrls.writeReqs                     152528                       # Number of write requests accepted
system.mem_ctrls.readBursts                    241738                       # Number of controller read bursts, including those serviced by the write queue
system.mem_ctrls.writeBursts                   152528                       # Number of controller write bursts, including those merged in the write queue
system.mem_ctrls.servicedByWrQ                    389                       # Number of controller read bursts serviced by the write queue
system.mem_ctrls.mergedWrBursts                     7                       # Number of controller write bursts merged with an existing one
system.mem_ctrls.neitherReadNorWriteReqs            0                       # Number of requests that are neither read nor write
system.mem_ctrls.avgRdQLen                       1.05                       # Average read queue length when enqueuing
system.mem_ctrls.avgWrQLen                      24.71                       # Average write queue length when enqueuing
system.mem_ctrls.numRdRetry                         0                       # Number of times read queue was full causing retry
system.mem_ctrls.numWrRetry                         0                       # Number of times write queue was full causing retry
system.mem_ctrls.readPktSize::0                     0                       # Read request sizes (log2)
system.mem_ctrls.readPktSize::1                     0                       # Read request sizes (log2)
system.mem_ctrls.readPktSize::2                     0                       # Read request sizes (log2)
system.mem_ctrls.readPktSize::3                     0                       # Read request sizes (log2)
[...]
system.mem_ctrls.dram.bw_write::.writebacks     59824133                       # Write bandwidth from this memory (bytes/s)
system.mem_ctrls.dram.bw_write::total        59824133                       # Write bandwidth from this memory (bytes/s)
system.mem_ctrls.dram.bw_total::.writebacks     59824133                       # Total bandwidth to/from this memory (bytes/s)
system.mem_ctrls.dram.bw_total::.cpu.inst       264747                       # Total bandwidth to/from this memory (bytes/s)
system.mem_ctrls.dram.bw_total::.cpu.data     94549099                       # Total bandwidth to/from this memory (bytes/s)
system.mem_ctrls.dram.bw_total::total       154637979                       # Total bandwidth to/from this memory (bytes/s)
system.mem_ctrls.dram.readBursts               241349                       # Number of DRAM read bursts
system.mem_ctrls.dram.writeBursts              152497                       # Number of DRAM write bursts
system.mem_ctrls.dram.perBankRdBursts::0        14933                       # Per bank write bursts
system.mem_ctrls.dram.perBankRdBursts::1        14837                       # Per bank write bursts
system.mem_ctrls.dram.perBankRdBursts::2        15447                       # Per bank write bursts
system.mem_ctrls.dram.perBankRdBursts::3        14825                       # Per bank write bursts
system.mem_ctrls.dram.perBankRdBursts::4        15180                       # Per bank write bursts
system.mem_ctrls.dram.perBankRdBursts::5        15289                       # Per bank write bursts
system.mem_ctrls.dram.perBankRdBursts::6        15432                       # Per bank write bursts
system.mem_ctrls.dram.perBankRdBursts::7        14660                       # Per bank write bursts
system.mem_ctrls.dram.perBankRdBursts::8        14501                       # Per bank write bursts
system.mem_ctrls.dram.perBankRdBursts::9        15794                       # Per bank write bursts
system.mem_ctrls.dram.perBankRdBursts::10        14976                       # Per bank write bursts
system.mem_ctrls.dram.perBankRdBursts::11        15332                       # Per bank write bursts
system.mem_ctrls.dram.perBankRdBursts::12        15211                       # Per bank write bursts
system.mem_ctrls.dram.perBankRdBursts::13        15092                       # Per bank write bursts
system.mem_ctrls.dram.perBankRdBursts::14        15017                       # Per bank write bursts
system.mem_ctrls.dram.perBankRdBursts::15        14823                       # Per bank write bursts
system.mem_ctrls.dram.perBankWrBursts::0         9294                       # Per bank write bursts
system.mem_ctrls.dram.perBankWrBursts::1         9213                       # Per bank write bursts
system.mem_ctrls.dram.perBankWrBursts::2         9776                       # Per bank write bursts
system.mem_ctrls.dram.perBankWrBursts::3         9426                       # Per bank write bursts
system.mem_ctrls.dram.perBankWrBursts::4         9752                       # Per bank write bursts
system.mem_ctrls.dram.perBankWrBursts::5         9798                       # Per bank write bursts
system.mem_ctrls.dram.perBankWrBursts::6         9906                       # Per bank write bursts
system.mem_ctrls.dram.perBankWrBursts::7         9263                       # Per bank write bursts
system.mem_ctrls.dram.perBankWrBursts::8         8925                       # Per bank write bursts
system.mem_ctrls.dram.perBankWrBursts::9        10281                       # Per bank write bursts
system.mem_ctrls.dram.perBankWrBursts::10         9247                       # Per bank write bursts
system.mem_ctrls.dram.perBankWrBursts::11         9665                       # Per bank write bursts
system.mem_ctrls.dram.perBankWrBursts::12         9628                       # Per bank write bursts
system.mem_ctrls.dram.perBankWrBursts::13         9584                       # Per bank write bursts
system.mem_ctrls.dram.perBankWrBursts::14         9432                       # Per bank write bursts
system.mem_ctrls.dram.perBankWrBursts::15         9307                       # Per bank write bursts
system.mem_ctrls.dram.totQLat              3702652500                       # Total ticks spent queuing
system.mem_ctrls.dram.totBusLat            1206745000                       # Total ticks spent in databus transfers
system.mem_ctrls.dram.totMemAccLat         8227946250                       # Total ticks spent from burst creation until serviced by the DRAM
system.mem_ctrls.dram.avgQLat                15341.49                       # Average queueing delay per DRAM burst
system.mem_ctrls.dram.avgBusLat               5000.00                       # Average bus latency per DRAM burst
system.mem_ctrls.dram.avgMemAccLat           34091.49                       # Average memory access latency per DRAM burst
system.mem_ctrls.dram.readRowHits              140051                       # Number of row buffer hits during reads
system.mem_ctrls.dram.writeRowHits              90541                       # Number of row buffer hits during writes
system.mem_ctrls.dram.readRowHitRate            58.03                       # Row buffer hit rate for reads
system.mem_ctrls.dram.writeRowHitRate           59.37                       # Row buffer hit rate for writes
system.mem_ctrls.dram.bytesPerActivate::samples       163243                       # Bytes accessed per row activation
system.mem_ctrls.dram.bytesPerActivate::mean   154.404023                       # Bytes accessed per row activation
system.mem_ctrls.dram.bytesPerActivate::gmean    96.635440                       # Bytes accessed per row activation
system.mem_ctrls.dram.bytesPerActivate::stdev   220.303907                       # Bytes accessed per row activation
system.mem_ctrls.dram.bytesPerActivate::0-127       119448     73.17%     73.17% # Bytes accessed per row activation
system.mem_ctrls.dram.bytesPerActivate::128-255        19688     12.06%     85.23% # Bytes accessed per row activation
system.mem_ctrls.dram.bytesPerActivate::256-383         5373      3.29%     88.52% # Bytes accessed per row activation
system.mem_ctrls.dram.bytesPerActivate::384-511         1478      0.91%     89.43% # Bytes accessed per row activation
system.mem_ctrls.dram.bytesPerActivate::512-639         9146      5.60%     95.03% # Bytes accessed per row activation
system.mem_ctrls.dram.bytesPerActivate::640-767          729      0.45%     95.48% # Bytes accessed per row activation
system.mem_ctrls.dram.bytesPerActivate::768-895          482      0.30%     95.77% # Bytes accessed per row activation
system.mem_ctrls.dram.bytesPerActivate::896-1023          546      0.33%     96.11% # Bytes accessed per row activation
system.mem_ctrls.dram.bytesPerActivate::1024-1151         6353      3.89%    100.00% # Bytes accessed per row activation
system.mem_ctrls.dram.bytesPerActivate::total       163243                       # Bytes accessed per row activation
system.mem_ctrls.dram.bytesRead              15446336                       # Total number of bytes read from DRAM
system.mem_ctrls.dram.bytesWritten            9759808                       # Total number of bytes written to DRAM
system.mem_ctrls.dram.avgRdBW               94.661274                       # Average DRAM read bandwidth in MiBytes/s
system.mem_ctrls.dram.avgWrBW               59.811975                       # Average DRAM write bandwidth in MiBytes/s
system.mem_ctrls.dram.peakBW                 12800.00                       # Theoretical peak bandwidth in MiByte/s
system.mem_ctrls.dram.busUtil                    1.21                       # Data bus utilization in percentage
system.mem_ctrls.dram.busUtilRead                0.74                       # Data bus utilization in percentage for reads
system.mem_ctrls.dram.busUtilWrite               0.47                       # Data bus utilization in percentage for writes
system.mem_ctrls.dram.pageHitRate               58.55                       # Row buffer hit rate, read and write combined
system.mem_ctrls.dram.power_state.pwrStateResidencyTicks::UNDEFINED 163174817000                       # Cumulative time (in ticks) in various power states
system.mem_ctrls.dram.rank0.actEnergy       590035320                       # Energy for activate commands per rank (pJ)
system.mem_ctrls.dram.rank0.preEnergy       313592235                       # Energy for precharge commands per rank (pJ)
system.mem_ctrls.dram.rank0.readEnergy      861105420                       # Energy for read commands per rank (pJ)
system.mem_ctrls.dram.rank0.writeEnergy     398954160                       # Energy for write commands per rank (pJ)
system.mem_ctrls.dram.rank0.refreshEnergy 12880395840.000002                       # Energy for refresh commands per rank (pJ)
system.mem_ctrls.dram.rank0.actBackEnergy  37741767960                       # Energy for active background per rank (pJ)
system.mem_ctrls.dram.rank0.preBackEnergy  30876588480                       # Energy for precharge background per rank (pJ)
system.mem_ctrls.dram.rank0.actPowerDownEnergy            0                       # Energy for active power-down per rank (pJ)
system.mem_ctrls.dram.rank0.prePowerDownEnergy            0                       # Energy for precharge power-down per rank (pJ)
system.mem_ctrls.dram.rank0.selfRefreshEnergy            0                       # Energy for self refresh per rank (pJ)
system.mem_ctrls.dram.rank0.totalEnergy   83662439415                       # Total energy per rank (pJ)
system.mem_ctrls.dram.rank0.averagePower   512.716612                       # Core power per rank (mW)
system.mem_ctrls.dram.rank0.totalIdleTime            0                       # Total Idle time Per DRAM Rank
system.mem_ctrls.dram.rank0.pwrStateTime::IDLE  79871844000                       # Time in different power states
system.mem_ctrls.dram.rank0.pwrStateTime::REF   5448560000                       # Time in different power states
system.mem_ctrls.dram.rank0.pwrStateTime::SREF            0                       # Time in different power states
system.mem_ctrls.dram.rank0.pwrStateTime::PRE_PDN            0                       # Time in different power states
system.mem_ctrls.dram.rank0.pwrStateTime::ACT  77854413000                       # Time in different power states
system.mem_ctrls.dram.rank0.pwrStateTime::ACT_PDN            0                       # Time in different power states
system.mem_ctrls.dram.rank1.actEnergy       575598240                       # Energy for activate commands per rank (pJ)
system.mem_ctrls.dram.rank1.preEnergy       305914950                       # Energy for precharge commands per rank (pJ)
system.mem_ctrls.dram.rank1.readEnergy      862126440                       # Energy for read commands per rank (pJ)
system.mem_ctrls.dram.rank1.writeEnergy     397080180                       # Energy for write commands per rank (pJ)
system.mem_ctrls.dram.rank1.refreshEnergy 12880395840.000002                       # Energy for refresh commands per rank (pJ)
system.mem_ctrls.dram.rank1.actBackEnergy  38493573450                       # Energy for active background per rank (pJ)
system.mem_ctrls.dram.rank1.preBackEnergy  30243489120                       # Energy for precharge background per rank (pJ)
system.mem_ctrls.dram.rank1.actPowerDownEnergy            0                       # Energy for active power-down per rank (pJ)
system.mem_ctrls.dram.rank1.prePowerDownEnergy            0                       # Energy for precharge power-down per rank (pJ)
system.mem_ctrls.dram.rank1.selfRefreshEnergy            0                       # Energy for self refresh per rank (pJ)
system.mem_ctrls.dram.rank1.totalEnergy   83758178220                       # Total energy per rank (pJ)
system.mem_ctrls.dram.rank1.averagePower   513.303338                       # Core power per rank (mW)
system.mem_ctrls.dram.rank1.totalIdleTime            0                       # Total Idle time Per DRAM Rank
system.mem_ctrls.dram.rank1.pwrStateTime::IDLE  78221395250                       # Time in different power states
system.mem_ctrls.dram.rank1.pwrStateTime::REF   5448560000                       # Time in different power states
system.mem_ctrls.dram.rank1.pwrStateTime::SREF            0                       # Time in different power states
system.mem_ctrls.dram.rank1.pwrStateTime::PRE_PDN            0                       # Time in different power states
system.mem_ctrls.dram.rank1.pwrStateTime::ACT  79504861750                       # Time in different power states
system.mem_ctrls.dram.rank1.pwrStateTime::ACT_PDN            0                       # Time in different power states
system.mem_ctrls.power_state.pwrStateResidencyTicks::UNDEFINED 163174817000                       # Cumulative time (in ticks) in various power states
system.membus.trans_dist::ReadResp              90184                       # Transaction distribution
system.membus.trans_dist::WritebackDirty       152528                       # Transaction distribution
system.membus.trans_dist::CleanEvict            72371                       # Transaction distribution
system.membus.trans_dist::ReadExReq            151554                       # Transaction distribution
system.membus.trans_dist::ReadExResp           151554                       # Transaction distribution
system.membus.trans_dist::ReadSharedReq         90184                       # Transaction distribution
system.membus.pkt_count_system.l2.mem_side_port::system.mem_ctrls.port       708375                       # Packet count per connected requestor and responder (bytes)
system.membus.pkt_count::total                 708375                       # Packet count per connected requestor and responder (bytes)
system.membus.pkt_size_system.l2.mem_side_port::system.mem_ctrls.port     25233024                       # Cumulative packet size per connected requestor and responder (bytes)
system.membus.pkt_size::total                25233024                       # Cumulative packet size per connected requestor and responder (bytes)
system.membus.snoops                                0                       # Total snoops (count)
system.membus.snoopTraffic                          0                       # Total snoop traffic (bytes)
system.membus.snoop_fanout::samples            241738                       # Request fanout histogram
system.membus.snoop_fanout::mean                    0                       # Request fanout histogram
system.membus.snoop_fanout::stdev                   0                       # Request fanout histogram
system.membus.snoop_fanout::underflows              0      0.00%      0.00% # Request fanout histogram
system.membus.snoop_fanout::0                  241738    100.00%    100.00% # Request fanout histogram
system.membus.snoop_fanout::1                       0      0.00%    100.00% # Request fanout histogram
system.membus.snoop_fanout::overflows               0      0.00%    100.00% # Request fanout histogram
system.membus.snoop_fanout::min_value               0                       # Request fanout histogram
system.membus.snoop_fanout::max_value               0                       # Request fanout histogram
system.membus.snoop_fanout::total              241738                       # Request fanout histogram
system.membus.power_state.pwrStateResidencyTicks::UNDEFINED 163174817000                       # Cumulative time (in ticks) in various power states
system.membus.reqLayer0.occupancy          1076749000                       # Layer occupancy (ticks)
system.membus.reqLayer0.utilization               0.7                       # Layer utilization (%)
system.membus.respLayer1.occupancy         1310998750                       # Layer occupancy (ticks)
system.membus.respLayer1.utilization              0.8                       # Layer utilization (%)
system.tol2bus.trans_dist::ReadResp            398070                       # Transaction distribution
system.tol2bus.trans_dist::WritebackDirty       748162                       # Transaction distribution
system.tol2bus.trans_dist::WritebackClean          331                       # Transaction distribution
system.tol2bus.trans_dist::CleanEvict          163178                       # Transaction distribution
system.tol2bus.trans_dist::ReadExReq           287339                       # Transaction distribution
system.tol2bus.trans_dist::ReadExResp          287338                       # Transaction distribution
system.tol2bus.trans_dist::ReadCleanReq           773                       # Transaction distribution
system.tol2bus.trans_dist::ReadSharedReq       397297                       # Transaction distribution
system.tol2bus.pkt_count_system.cpu.icache.mem_side_port::system.l2.cpu_side_port         1877                       # Packet count per connected requestor and responder (bytes)
system.tol2bus.pkt_count_system.cpu.dcache.mem_side_port::system.l2.cpu_side_port      2052882                       # Packet count per connected requestor and responder (bytes)
system.tol2bus.pkt_count::total               2054759                       # Packet count per connected requestor and responder (bytes)
system.tol2bus.pkt_size_system.cpu.icache.mem_side_port::system.l2.cpu_side_port        70656                       # Cumulative packet size per connected requestor and responder (bytes)
system.tol2bus.pkt_size_system.cpu.dcache.mem_side_port::system.l2.cpu_side_port     81937216                       # Cumulative packet size per connected requestor and responder (bytes)
system.tol2bus.pkt_size::total               82007872                       # Cumulative packet size per connected requestor and responder (bytes)
system.tol2bus.snoops                          227729                       # Total snoops (count)
system.tol2bus.snoopTraffic                   9761792                       # Total snoop traffic (bytes)
system.tol2bus.snoop_fanout::samples           913138                       # Request fanout histogram
system.tol2bus.snoop_fanout::mean            0.007291                       # Request fanout histogram
system.tol2bus.snoop_fanout::stdev           0.085206                       # Request fanout histogram
system.tol2bus.snoop_fanout::underflows             0      0.00%      0.00% # Request fanout histogram
system.tol2bus.snoop_fanout::0                 906490     99.27%     99.27% # Request fanout histogram
system.tol2bus.snoop_fanout::1                   6638      0.73%    100.00% # Request fanout histogram
system.tol2bus.snoop_fanout::2                     10      0.00%    100.00% # Request fanout histogram
system.tol2bus.snoop_fanout::overflows              0      0.00%    100.00% # Request fanout histogram
system.tol2bus.snoop_fanout::min_value              0                       # Request fanout histogram
system.tol2bus.snoop_fanout::max_value              2                       # Request fanout histogram
system.tol2bus.snoop_fanout::total             913138                       # Request fanout histogram
system.tol2bus.power_state.pwrStateResidencyTicks::UNDEFINED 163174817000                       # Cumulative time (in ticks) in various power states
system.tol2bus.reqLayer0.occupancy         2561281000                       # Layer occupancy (ticks)
system.tol2bus.reqLayer0.utilization              1.6                       # Layer utilization (%)
system.tol2bus.respLayer0.occupancy           2319000                       # Layer occupancy (ticks)
system.tol2bus.respLayer0.utilization             0.0                       # Layer utilization (%)
system.tol2bus.respLayer1.occupancy        2053909995                       # Layer occupancy (ticks)
system.tol2bus.respLayer1.utilization             1.3                       # Layer utilization (%)
system.voltage_domain.voltage                       1                       # Voltage in Volts

---------- End Simulation Statistics   ----------
